 ****** HSPICE -- D-2010.03-SP1 32-BIT (May 26 2010) winnt ******               
  Copyright (C) 2010 Synopsys, Inc. All Rights Reserved.                        
  Unpublished-rights reserved under US copyright laws.
  This program is protected by law and is subject to the 
  terms and conditions of the license agreement from Synopsys.
  Use of this program is your acceptance to be bound by the 
  license agreement. HSPICE is the trademark of Synopsys, Inc.
  Input File: d:\¿Î±¾&¿Î¼ş&ÎÄ¼ş\ÑĞ¾¿Éú¿Î³Ì\ÏÖ´ú¼¯³ÉµçÂ·Éè¼Æ·½·¨\¡¾ÏÖ´ú¼¯³ÉµçÂ··Ö
  lic:  
  lic: FLEXlm: v8.5b 
  lic: USER:   76649                HOSTNAME: LAPTOP-2ERCPRJ5 
  lic: HOSTID: "98fa9b317f23 00ff1a4c8a6d 005056c00001 005056c00008 00ff066784e8
  
  lic: Using FLEXlm license file: 
  lic: C:\flexlm\hspice.dat 
  lic: Checkout 1 hspice 
  lic: License/Maintenance for hspice will expire on 31-dec-2020/2007.9 
  lic: NODE LOCKED license on hostid "98fa9b317f23 00ff1a4c8a6d 005056c00001 005
 0
  lic:   
 Init: read install configuration file: C:\synopsys\Hspice_D-2010.03-SP1\meta.cfg
1****** HSPICE -- D-2010.03-SP1 32-BIT (May 26 2010) winnt ******               
 ******  
 *a bus interconnect circuit with 34 bus line 16 segment.

  ******  circuit name directory
 circuit number to circuit name directory
   number circuitname                     definition         multiplier
        0 main circuit
        1 x1.                             intercon           1.00 
 
      
 *****************************************************************
 ******  option summary
 ******
 runlvl  = 3         bypass  = 2         
  Opening plot unit= 79
 file=d:\¿Î±¾&¿Î¼ş&ÎÄ¼ş\ÑĞ¾¿Éú¿Î³Ì\ÏÖ´ú¼¯³ÉµçÂ·Éè¼Æ·½·¨\¡¾ÏÖ´ú¼¯³ÉµçÂ··ÖÎö¡¿×÷Ò

1****** HSPICE -- D-2010.03-SP1 32-BIT (May 26 2010) winnt ******               
 ******  
 *a bus interconnect circuit with 34 bus line 16 segment.

  ******  operating point information tnom=  25.000 temp=  25.000 *****
 ***** operating point status is voltage   simulation time is     0.     
    node    =voltage      node    =voltage      node    =voltage

 +0:tdn10a1 =   0.      0:tdn10a9 =   0.      0:tdn11a1 =   0.     
 +0:tdn11a9 =   0.      0:tdn12a1 =   0.      0:tdn12a9 =   0.     
 +0:tdn13a1 =   0.      0:tdn13a9 =   0.      0:tdn14a1 =   0.     
 +0:tdn14a9 =   0.      0:tdn15a1 =   0.      0:tdn15a9 =   0.     
 +0:tdn16a1 =   0.      0:tdn16a9 =   0.      0:tdn17a1 =   0.     
 +0:tdn17a9 =   0.      0:tdn18a1 =   0.      0:tdn18a9 =   0.     
 +0:tdn19a1 =   0.      0:tdn19a9 =   0.      0:tdn1a1  =   0.     
 +0:tdn1a9  =   0.      0:tdn20a1 =   0.      0:tdn20a9 =   0.     
 +0:tdn21a1 =   0.      0:tdn21a9 =   0.      0:tdn22a1 =   0.     
 +0:tdn22a9 =   0.      0:tdn23a1 =   0.      0:tdn23a9 =   0.     
 +0:tdn24a1 =   0.      0:tdn24a9 =   0.      0:tdn25a1 =   0.     
 +0:tdn25a9 =   0.      0:tdn26a1 =   0.      0:tdn26a9 =   0.     
 +0:tdn27a1 =   0.      0:tdn27a9 =   0.      0:tdn28a1 =   0.     
 +0:tdn28a9 =   0.      0:tdn29a1 =   0.      0:tdn29a9 =   0.     
 +0:tdn2a1  =   0.      0:tdn2a9  =   0.      0:tdn30a1 =   0.     
 +0:tdn30a9 =   0.      0:tdn31a1 =   0.      0:tdn31a9 =   0.     
 +0:tdn32a1 =   0.      0:tdn32a9 =   0.      0:tdn3a1  =   0.     
 +0:tdn3a9  =   0.      0:tdn4a1  =   0.      0:tdn4a9  =   0.     
 +0:tdn5a1  =   0.      0:tdn5a9  =   0.      0:tdn6a1  =   0.     
 +0:tdn6a9  =   0.      0:tdn7a1  =   0.      0:tdn7a9  =   0.     
 +0:tdn8a1  =   0.      0:tdn8a9  =   0.      0:tdn9a1  =   0.     
 +0:tdn9a9  =   0.      0:tdnga1  =   0.      0:tdnga9  =   0.     
 +0:tdnva1  =   0.      0:tdnva9  =   0.      1:tdn10a10=   0.     
 +1:tdn10a11=   0.      1:tdn10a12=   0.      1:tdn10a13=   0.     
 +1:tdn10a14=   0.      1:tdn10a15=   0.      1:tdn10a16=   0.     
 +1:tdn10a17=   0.      1:tdn10a18=   0.      1:tdn10a19=   0.     
 +1:tdn10a2 =   0.      1:tdn10a20=   0.      1:tdn10a21=   0.     
 +1:tdn10a22=   0.      1:tdn10a23=   0.      1:tdn10a24=   0.     
 +1:tdn10a25=   0.      1:tdn10a26=   0.      1:tdn10a27=   0.     
 +1:tdn10a28=   0.      1:tdn10a29=   0.      1:tdn10a3 =   0.     
 +1:tdn10a30=   0.      1:tdn10a31=   0.      1:tdn10a32=   0.     
 +1:tdn10a4 =   0.      1:tdn10a5 =   0.      1:tdn10a6 =   0.     
 +1:tdn10a7 =   0.      1:tdn10a8 =   0.      1:tdn10a9 =   0.     
 +1:tdn11a10=   0.      1:tdn11a11=   0.      1:tdn11a12=   0.     
 +1:tdn11a13=   0.      1:tdn11a14=   0.      1:tdn11a15=   0.     
 +1:tdn11a16=   0.      1:tdn11a17=   0.      1:tdn11a18=   0.     
 +1:tdn11a19=   0.      1:tdn11a2 =   0.      1:tdn11a20=   0.     
 +1:tdn11a21=   0.      1:tdn11a22=   0.      1:tdn11a23=   0.     
 +1:tdn11a24=   0.      1:tdn11a25=   0.      1:tdn11a26=   0.     
 +1:tdn11a27=   0.      1:tdn11a28=   0.      1:tdn11a29=   0.     
 +1:tdn11a3 =   0.      1:tdn11a30=   0.      1:tdn11a31=   0.     
 +1:tdn11a32=   0.      1:tdn11a4 =   0.      1:tdn11a5 =   0.     
 +1:tdn11a6 =   0.      1:tdn11a7 =   0.      1:tdn11a8 =   0.     
 +1:tdn11a9 =   0.      1:tdn12a10=   0.      1:tdn12a11=   0.     
 +1:tdn12a12=   0.      1:tdn12a13=   0.      1:tdn12a14=   0.     
 +1:tdn12a15=   0.      1:tdn12a16=   0.      1:tdn12a17=   0.     
 +1:tdn12a18=   0.      1:tdn12a19=   0.      1:tdn12a2 =   0.     
 +1:tdn12a20=   0.      1:tdn12a21=   0.      1:tdn12a22=   0.     
 +1:tdn12a23=   0.      1:tdn12a24=   0.      1:tdn12a25=   0.     
 +1:tdn12a26=   0.      1:tdn12a27=   0.      1:tdn12a28=   0.     
 +1:tdn12a29=   0.      1:tdn12a3 =   0.      1:tdn12a30=   0.     
 +1:tdn12a31=   0.      1:tdn12a32=   0.      1:tdn12a4 =   0.     
 +1:tdn12a5 =   0.      1:tdn12a6 =   0.      1:tdn12a7 =   0.     
 +1:tdn12a8 =   0.      1:tdn12a9 =   0.      1:tdn13a10=   0.     
 +1:tdn13a11=   0.      1:tdn13a12=   0.      1:tdn13a13=   0.     
 +1:tdn13a14=   0.      1:tdn13a15=   0.      1:tdn13a16=   0.     
 +1:tdn13a17=   0.      1:tdn13a18=   0.      1:tdn13a19=   0.     
 +1:tdn13a2 =   0.      1:tdn13a20=   0.      1:tdn13a21=   0.     
 +1:tdn13a22=   0.      1:tdn13a23=   0.      1:tdn13a24=   0.     
 +1:tdn13a25=   0.      1:tdn13a26=   0.      1:tdn13a27=   0.     
 +1:tdn13a28=   0.      1:tdn13a29=   0.      1:tdn13a3 =   0.     
 +1:tdn13a30=   0.      1:tdn13a31=   0.      1:tdn13a32=   0.     
 +1:tdn13a4 =   0.      1:tdn13a5 =   0.      1:tdn13a6 =   0.     
 +1:tdn13a7 =   0.      1:tdn13a8 =   0.      1:tdn13a9 =   0.     
 +1:tdn14a10=   0.      1:tdn14a11=   0.      1:tdn14a12=   0.     
 +1:tdn14a13=   0.      1:tdn14a14=   0.      1:tdn14a15=   0.     
 +1:tdn14a16=   0.      1:tdn14a17=   0.      1:tdn14a18=   0.     
 +1:tdn14a19=   0.      1:tdn14a2 =   0.      1:tdn14a20=   0.     
 +1:tdn14a21=   0.      1:tdn14a22=   0.      1:tdn14a23=   0.     
 +1:tdn14a24=   0.      1:tdn14a25=   0.      1:tdn14a26=   0.     
 +1:tdn14a27=   0.      1:tdn14a28=   0.      1:tdn14a29=   0.     
 +1:tdn14a3 =   0.      1:tdn14a30=   0.      1:tdn14a31=   0.     
 +1:tdn14a32=   0.      1:tdn14a4 =   0.      1:tdn14a5 =   0.     
 +1:tdn14a6 =   0.      1:tdn14a7 =   0.      1:tdn14a8 =   0.     
 +1:tdn14a9 =   0.      1:tdn15a10=   0.      1:tdn15a11=   0.     
 +1:tdn15a12=   0.      1:tdn15a13=   0.      1:tdn15a14=   0.     
 +1:tdn15a15=   0.      1:tdn15a16=   0.      1:tdn15a17=   0.     
 +1:tdn15a18=   0.      1:tdn15a19=   0.      1:tdn15a2 =   0.     
 +1:tdn15a20=   0.      1:tdn15a21=   0.      1:tdn15a22=   0.     
 +1:tdn15a23=   0.      1:tdn15a24=   0.      1:tdn15a25=   0.     
 +1:tdn15a26=   0.      1:tdn15a27=   0.      1:tdn15a28=   0.     
 +1:tdn15a29=   0.      1:tdn15a3 =   0.      1:tdn15a30=   0.     
 +1:tdn15a31=   0.      1:tdn15a32=   0.      1:tdn15a4 =   0.     
 +1:tdn15a5 =   0.      1:tdn15a6 =   0.      1:tdn15a7 =   0.     
 +1:tdn15a8 =   0.      1:tdn15a9 =   0.      1:tdn16a10=   0.     
 +1:tdn16a11=   0.      1:tdn16a12=   0.      1:tdn16a13=   0.     
 +1:tdn16a14=   0.      1:tdn16a15=   0.      1:tdn16a16=   0.     
 +1:tdn16a17=   0.      1:tdn16a18=   0.      1:tdn16a19=   0.     
 +1:tdn16a2 =   0.      1:tdn16a20=   0.      1:tdn16a21=   0.     
 +1:tdn16a22=   0.      1:tdn16a23=   0.      1:tdn16a24=   0.     
 +1:tdn16a25=   0.      1:tdn16a26=   0.      1:tdn16a27=   0.     
 +1:tdn16a28=   0.      1:tdn16a29=   0.      1:tdn16a3 =   0.     
 +1:tdn16a30=   0.      1:tdn16a31=   0.      1:tdn16a32=   0.     
 +1:tdn16a4 =   0.      1:tdn16a5 =   0.      1:tdn16a6 =   0.     
 +1:tdn16a7 =   0.      1:tdn16a8 =   0.      1:tdn16a9 =   0.     
 +1:tdn17a10=   0.      1:tdn17a11=   0.      1:tdn17a12=   0.     
 +1:tdn17a13=   0.      1:tdn17a14=   0.      1:tdn17a15=   0.     
 +1:tdn17a16=   0.      1:tdn17a17=   0.      1:tdn17a18=   0.     
 +1:tdn17a19=   0.      1:tdn17a2 =   0.      1:tdn17a20=   0.     
 +1:tdn17a21=   0.      1:tdn17a22=   0.      1:tdn17a23=   0.     
 +1:tdn17a24=   0.      1:tdn17a25=   0.      1:tdn17a26=   0.     
 +1:tdn17a27=   0.      1:tdn17a28=   0.      1:tdn17a29=   0.     
 +1:tdn17a3 =   0.      1:tdn17a30=   0.      1:tdn17a31=   0.     
 +1:tdn17a32=   0.      1:tdn17a4 =   0.      1:tdn17a5 =   0.     
 +1:tdn17a6 =   0.      1:tdn17a7 =   0.      1:tdn17a8 =   0.     
 +1:tdn17a9 =   0.      1:tdn18a10=   0.      1:tdn18a11=   0.     
 +1:tdn18a12=   0.      1:tdn18a13=   0.      1:tdn18a14=   0.     
 +1:tdn18a15=   0.      1:tdn18a16=   0.      1:tdn18a17=   0.     
 +1:tdn18a18=   0.      1:tdn18a19=   0.      1:tdn18a2 =   0.     
 +1:tdn18a20=   0.      1:tdn18a21=   0.      1:tdn18a22=   0.     
 +1:tdn18a23=   0.      1:tdn18a24=   0.      1:tdn18a25=   0.     
 +1:tdn18a26=   0.      1:tdn18a27=   0.      1:tdn18a28=   0.     
 +1:tdn18a29=   0.      1:tdn18a3 =   0.      1:tdn18a30=   0.     
 +1:tdn18a31=   0.      1:tdn18a32=   0.      1:tdn18a4 =   0.     
 +1:tdn18a5 =   0.      1:tdn18a6 =   0.      1:tdn18a7 =   0.     
 +1:tdn18a8 =   0.      1:tdn18a9 =   0.      1:tdn19a10=   0.     
 +1:tdn19a11=   0.      1:tdn19a12=   0.      1:tdn19a13=   0.     
 +1:tdn19a14=   0.      1:tdn19a15=   0.      1:tdn19a16=   0.     
 +1:tdn19a17=   0.      1:tdn19a18=   0.      1:tdn19a19=   0.     
 +1:tdn19a2 =   0.      1:tdn19a20=   0.      1:tdn19a21=   0.     
 +1:tdn19a22=   0.      1:tdn19a23=   0.      1:tdn19a24=   0.     
 +1:tdn19a25=   0.      1:tdn19a26=   0.      1:tdn19a27=   0.     
 +1:tdn19a28=   0.      1:tdn19a29=   0.      1:tdn19a3 =   0.     
 +1:tdn19a30=   0.      1:tdn19a31=   0.      1:tdn19a32=   0.     
 +1:tdn19a4 =   0.      1:tdn19a5 =   0.      1:tdn19a6 =   0.     
 +1:tdn19a7 =   0.      1:tdn19a8 =   0.      1:tdn19a9 =   0.     
 +1:tdn1a10 =   0.      1:tdn1a11 =   0.      1:tdn1a12 =   0.     
 +1:tdn1a13 =   0.      1:tdn1a14 =   0.      1:tdn1a15 =   0.     
 +1:tdn1a16 =   0.      1:tdn1a17 =   0.      1:tdn1a18 =   0.     
 +1:tdn1a19 =   0.      1:tdn1a2  =   0.      1:tdn1a20 =   0.     
 +1:tdn1a21 =   0.      1:tdn1a22 =   0.      1:tdn1a23 =   0.     
 +1:tdn1a24 =   0.      1:tdn1a25 =   0.      1:tdn1a26 =   0.     
 +1:tdn1a27 =   0.      1:tdn1a28 =   0.      1:tdn1a29 =   0.     
 +1:tdn1a3  =   0.      1:tdn1a30 =   0.      1:tdn1a31 =   0.     
 +1:tdn1a32 =   0.      1:tdn1a4  =   0.      1:tdn1a5  =   0.     
 +1:tdn1a6  =   0.      1:tdn1a7  =   0.      1:tdn1a8  =   0.     
 +1:tdn1a9  =   0.      1:tdn20a10=   0.      1:tdn20a11=   0.     
 +1:tdn20a12=   0.      1:tdn20a13=   0.      1:tdn20a14=   0.     
 +1:tdn20a15=   0.      1:tdn20a16=   0.      1:tdn20a17=   0.     
 +1:tdn20a18=   0.      1:tdn20a19=   0.      1:tdn20a2 =   0.     
 +1:tdn20a20=   0.      1:tdn20a21=   0.      1:tdn20a22=   0.     
 +1:tdn20a23=   0.      1:tdn20a24=   0.      1:tdn20a25=   0.     
 +1:tdn20a26=   0.      1:tdn20a27=   0.      1:tdn20a28=   0.     
 +1:tdn20a29=   0.      1:tdn20a3 =   0.      1:tdn20a30=   0.     
 +1:tdn20a31=   0.      1:tdn20a32=   0.      1:tdn20a4 =   0.     
 +1:tdn20a5 =   0.      1:tdn20a6 =   0.      1:tdn20a7 =   0.     
 +1:tdn20a8 =   0.      1:tdn20a9 =   0.      1:tdn21a10=   0.     
 +1:tdn21a11=   0.      1:tdn21a12=   0.      1:tdn21a13=   0.     
 +1:tdn21a14=   0.      1:tdn21a15=   0.      1:tdn21a16=   0.     
 +1:tdn21a17=   0.      1:tdn21a18=   0.      1:tdn21a19=   0.     
 +1:tdn21a2 =   0.      1:tdn21a20=   0.      1:tdn21a21=   0.     
 +1:tdn21a22=   0.      1:tdn21a23=   0.      1:tdn21a24=   0.     
 +1:tdn21a25=   0.      1:tdn21a26=   0.      1:tdn21a27=   0.     
 +1:tdn21a28=   0.      1:tdn21a29=   0.      1:tdn21a3 =   0.     
 +1:tdn21a30=   0.      1:tdn21a31=   0.      1:tdn21a32=   0.     
 +1:tdn21a4 =   0.      1:tdn21a5 =   0.      1:tdn21a6 =   0.     
 +1:tdn21a7 =   0.      1:tdn21a8 =   0.      1:tdn21a9 =   0.     
 +1:tdn22a10=   0.      1:tdn22a11=   0.      1:tdn22a12=   0.     
 +1:tdn22a13=   0.      1:tdn22a14=   0.      1:tdn22a15=   0.     
 +1:tdn22a16=   0.      1:tdn22a17=   0.      1:tdn22a18=   0.     
 +1:tdn22a19=   0.      1:tdn22a2 =   0.      1:tdn22a20=   0.     
 +1:tdn22a21=   0.      1:tdn22a22=   0.      1:tdn22a23=   0.     
 +1:tdn22a24=   0.      1:tdn22a25=   0.      1:tdn22a26=   0.     
 +1:tdn22a27=   0.      1:tdn22a28=   0.      1:tdn22a29=   0.     
 +1:tdn22a3 =   0.      1:tdn22a30=   0.      1:tdn22a31=   0.     
 +1:tdn22a32=   0.      1:tdn22a4 =   0.      1:tdn22a5 =   0.     
 +1:tdn22a6 =   0.      1:tdn22a7 =   0.      1:tdn22a8 =   0.     
 +1:tdn22a9 =   0.      1:tdn23a10=   0.      1:tdn23a11=   0.     
 +1:tdn23a12=   0.      1:tdn23a13=   0.      1:tdn23a14=   0.     
 +1:tdn23a15=   0.      1:tdn23a16=   0.      1:tdn23a17=   0.     
 +1:tdn23a18=   0.      1:tdn23a19=   0.      1:tdn23a2 =   0.     
 +1:tdn23a20=   0.      1:tdn23a21=   0.      1:tdn23a22=   0.     
 +1:tdn23a23=   0.      1:tdn23a24=   0.      1:tdn23a25=   0.     
 +1:tdn23a26=   0.      1:tdn23a27=   0.      1:tdn23a28=   0.     
 +1:tdn23a29=   0.      1:tdn23a3 =   0.      1:tdn23a30=   0.     
 +1:tdn23a31=   0.      1:tdn23a32=   0.      1:tdn23a4 =   0.     
 +1:tdn23a5 =   0.      1:tdn23a6 =   0.      1:tdn23a7 =   0.     
 +1:tdn23a8 =   0.      1:tdn23a9 =   0.      1:tdn24a10=   0.     
 +1:tdn24a11=   0.      1:tdn24a12=   0.      1:tdn24a13=   0.     
 +1:tdn24a14=   0.      1:tdn24a15=   0.      1:tdn24a16=   0.     
 +1:tdn24a17=   0.      1:tdn24a18=   0.      1:tdn24a19=   0.     
 +1:tdn24a2 =   0.      1:tdn24a20=   0.      1:tdn24a21=   0.     
 +1:tdn24a22=   0.      1:tdn24a23=   0.      1:tdn24a24=   0.     
 +1:tdn24a25=   0.      1:tdn24a26=   0.      1:tdn24a27=   0.     
 +1:tdn24a28=   0.      1:tdn24a29=   0.      1:tdn24a3 =   0.     
 +1:tdn24a30=   0.      1:tdn24a31=   0.      1:tdn24a32=   0.     
 +1:tdn24a4 =   0.      1:tdn24a5 =   0.      1:tdn24a6 =   0.     
 +1:tdn24a7 =   0.      1:tdn24a8 =   0.      1:tdn24a9 =   0.     
 +1:tdn25a10=   0.      1:tdn25a11=   0.      1:tdn25a12=   0.     
 +1:tdn25a13=   0.      1:tdn25a14=   0.      1:tdn25a15=   0.     
 +1:tdn25a16=   0.      1:tdn25a17=   0.      1:tdn25a18=   0.     
 +1:tdn25a19=   0.      1:tdn25a2 =   0.      1:tdn25a20=   0.     
 +1:tdn25a21=   0.      1:tdn25a22=   0.      1:tdn25a23=   0.     
 +1:tdn25a24=   0.      1:tdn25a25=   0.      1:tdn25a26=   0.     
 +1:tdn25a27=   0.      1:tdn25a28=   0.      1:tdn25a29=   0.     
 +1:tdn25a3 =   0.      1:tdn25a30=   0.      1:tdn25a31=   0.     
 +1:tdn25a32=   0.      1:tdn25a4 =   0.      1:tdn25a5 =   0.     
 +1:tdn25a6 =   0.      1:tdn25a7 =   0.      1:tdn25a8 =   0.     
 +1:tdn25a9 =   0.      1:tdn26a10=   0.      1:tdn26a11=   0.     
 +1:tdn26a12=   0.      1:tdn26a13=   0.      1:tdn26a14=   0.     
 +1:tdn26a15=   0.      1:tdn26a16=   0.      1:tdn26a17=   0.     
 +1:tdn26a18=   0.      1:tdn26a19=   0.      1:tdn26a2 =   0.     
 +1:tdn26a20=   0.      1:tdn26a21=   0.      1:tdn26a22=   0.     
 +1:tdn26a23=   0.      1:tdn26a24=   0.      1:tdn26a25=   0.     
 +1:tdn26a26=   0.      1:tdn26a27=   0.      1:tdn26a28=   0.     
 +1:tdn26a29=   0.      1:tdn26a3 =   0.      1:tdn26a30=   0.     
 +1:tdn26a31=   0.      1:tdn26a32=   0.      1:tdn26a4 =   0.     
 +1:tdn26a5 =   0.      1:tdn26a6 =   0.      1:tdn26a7 =   0.     
 +1:tdn26a8 =   0.      1:tdn26a9 =   0.      1:tdn27a10=   0.     
 +1:tdn27a11=   0.      1:tdn27a12=   0.      1:tdn27a13=   0.     
 +1:tdn27a14=   0.      1:tdn27a15=   0.      1:tdn27a16=   0.     
 +1:tdn27a17=   0.      1:tdn27a18=   0.      1:tdn27a19=   0.     
 +1:tdn27a2 =   0.      1:tdn27a20=   0.      1:tdn27a21=   0.     
 +1:tdn27a22=   0.      1:tdn27a23=   0.      1:tdn27a24=   0.     
 +1:tdn27a25=   0.      1:tdn27a26=   0.      1:tdn27a27=   0.     
 +1:tdn27a28=   0.      1:tdn27a29=   0.      1:tdn27a3 =   0.     
 +1:tdn27a30=   0.      1:tdn27a31=   0.      1:tdn27a32=   0.     
 +1:tdn27a4 =   0.      1:tdn27a5 =   0.      1:tdn27a6 =   0.     
 +1:tdn27a7 =   0.      1:tdn27a8 =   0.      1:tdn27a9 =   0.     
 +1:tdn28a10=   0.      1:tdn28a11=   0.      1:tdn28a12=   0.     
 +1:tdn28a13=   0.      1:tdn28a14=   0.      1:tdn28a15=   0.     
 +1:tdn28a16=   0.      1:tdn28a17=   0.      1:tdn28a18=   0.     
 +1:tdn28a19=   0.      1:tdn28a2 =   0.      1:tdn28a20=   0.     
 +1:tdn28a21=   0.      1:tdn28a22=   0.      1:tdn28a23=   0.     
 +1:tdn28a24=   0.      1:tdn28a25=   0.      1:tdn28a26=   0.     
 +1:tdn28a27=   0.      1:tdn28a28=   0.      1:tdn28a29=   0.     
 +1:tdn28a3 =   0.      1:tdn28a30=   0.      1:tdn28a31=   0.     
 +1:tdn28a32=   0.      1:tdn28a4 =   0.      1:tdn28a5 =   0.     
 +1:tdn28a6 =   0.      1:tdn28a7 =   0.      1:tdn28a8 =   0.     
 +1:tdn28a9 =   0.      1:tdn29a10=   0.      1:tdn29a11=   0.     
 +1:tdn29a12=   0.      1:tdn29a13=   0.      1:tdn29a14=   0.     
 +1:tdn29a15=   0.      1:tdn29a16=   0.      1:tdn29a17=   0.     
 +1:tdn29a18=   0.      1:tdn29a19=   0.      1:tdn29a2 =   0.     
 +1:tdn29a20=   0.      1:tdn29a21=   0.      1:tdn29a22=   0.     
 +1:tdn29a23=   0.      1:tdn29a24=   0.      1:tdn29a25=   0.     
 +1:tdn29a26=   0.      1:tdn29a27=   0.      1:tdn29a28=   0.     
 +1:tdn29a29=   0.      1:tdn29a3 =   0.      1:tdn29a30=   0.     
 +1:tdn29a31=   0.      1:tdn29a32=   0.      1:tdn29a4 =   0.     
 +1:tdn29a5 =   0.      1:tdn29a6 =   0.      1:tdn29a7 =   0.     
 +1:tdn29a8 =   0.      1:tdn29a9 =   0.      1:tdn2a10 =   0.     
 +1:tdn2a11 =   0.      1:tdn2a12 =   0.      1:tdn2a13 =   0.     
 +1:tdn2a14 =   0.      1:tdn2a15 =   0.      1:tdn2a16 =   0.     
 +1:tdn2a17 =   0.      1:tdn2a18 =   0.      1:tdn2a19 =   0.     
 +1:tdn2a2  =   0.      1:tdn2a20 =   0.      1:tdn2a21 =   0.     
 +1:tdn2a22 =   0.      1:tdn2a23 =   0.      1:tdn2a24 =   0.     
 +1:tdn2a25 =   0.      1:tdn2a26 =   0.      1:tdn2a27 =   0.     
 +1:tdn2a28 =   0.      1:tdn2a29 =   0.      1:tdn2a3  =   0.     
 +1:tdn2a30 =   0.      1:tdn2a31 =   0.      1:tdn2a32 =   0.     
 +1:tdn2a4  =   0.      1:tdn2a5  =   0.      1:tdn2a6  =   0.     
 +1:tdn2a7  =   0.      1:tdn2a8  =   0.      1:tdn2a9  =   0.     
 +1:tdn30a10=   0.      1:tdn30a11=   0.      1:tdn30a12=   0.     
 +1:tdn30a13=   0.      1:tdn30a14=   0.      1:tdn30a15=   0.     
 +1:tdn30a16=   0.      1:tdn30a17=   0.      1:tdn30a18=   0.     
 +1:tdn30a19=   0.      1:tdn30a2 =   0.      1:tdn30a20=   0.     
 +1:tdn30a21=   0.      1:tdn30a22=   0.      1:tdn30a23=   0.     
 +1:tdn30a24=   0.      1:tdn30a25=   0.      1:tdn30a26=   0.     
 +1:tdn30a27=   0.      1:tdn30a28=   0.      1:tdn30a29=   0.     
 +1:tdn30a3 =   0.      1:tdn30a30=   0.      1:tdn30a31=   0.     
 +1:tdn30a32=   0.      1:tdn30a4 =   0.      1:tdn30a5 =   0.     
 +1:tdn30a6 =   0.      1:tdn30a7 =   0.      1:tdn30a8 =   0.     
 +1:tdn30a9 =   0.      1:tdn31a10=   0.      1:tdn31a11=   0.     
 +1:tdn31a12=   0.      1:tdn31a13=   0.      1:tdn31a14=   0.     
 +1:tdn31a15=   0.      1:tdn31a16=   0.      1:tdn31a17=   0.     
 +1:tdn31a18=   0.      1:tdn31a19=   0.      1:tdn31a2 =   0.     
 +1:tdn31a20=   0.      1:tdn31a21=   0.      1:tdn31a22=   0.     
 +1:tdn31a23=   0.      1:tdn31a24=   0.      1:tdn31a25=   0.     
 +1:tdn31a26=   0.      1:tdn31a27=   0.      1:tdn31a28=   0.     
 +1:tdn31a29=   0.      1:tdn31a3 =   0.      1:tdn31a30=   0.     
 +1:tdn31a31=   0.      1:tdn31a32=   0.      1:tdn31a4 =   0.     
 +1:tdn31a5 =   0.      1:tdn31a6 =   0.      1:tdn31a7 =   0.     
 +1:tdn31a8 =   0.      1:tdn31a9 =   0.      1:tdn32a10=   0.     
 +1:tdn32a11=   0.      1:tdn32a12=   0.      1:tdn32a13=   0.     
 +1:tdn32a14=   0.      1:tdn32a15=   0.      1:tdn32a16=   0.     
 +1:tdn32a17=   0.      1:tdn32a18=   0.      1:tdn32a19=   0.     
 +1:tdn32a2 =   0.      1:tdn32a20=   0.      1:tdn32a21=   0.     
 +1:tdn32a22=   0.      1:tdn32a23=   0.      1:tdn32a24=   0.     
 +1:tdn32a25=   0.      1:tdn32a26=   0.      1:tdn32a27=   0.     
 +1:tdn32a28=   0.      1:tdn32a29=   0.      1:tdn32a3 =   0.     
 +1:tdn32a30=   0.      1:tdn32a31=   0.      1:tdn32a32=   0.     
 +1:tdn32a4 =   0.      1:tdn32a5 =   0.      1:tdn32a6 =   0.     
 +1:tdn32a7 =   0.      1:tdn32a8 =   0.      1:tdn32a9 =   0.     
 +1:tdn3a10 =   0.      1:tdn3a11 =   0.      1:tdn3a12 =   0.     
 +1:tdn3a13 =   0.      1:tdn3a14 =   0.      1:tdn3a15 =   0.     
 +1:tdn3a16 =   0.      1:tdn3a17 =   0.      1:tdn3a18 =   0.     
 +1:tdn3a19 =   0.      1:tdn3a2  =   0.      1:tdn3a20 =   0.     
 +1:tdn3a21 =   0.      1:tdn3a22 =   0.      1:tdn3a23 =   0.     
 +1:tdn3a24 =   0.      1:tdn3a25 =   0.      1:tdn3a26 =   0.     
 +1:tdn3a27 =   0.      1:tdn3a28 =   0.      1:tdn3a29 =   0.     
 +1:tdn3a3  =   0.      1:tdn3a30 =   0.      1:tdn3a31 =   0.     
 +1:tdn3a32 =   0.      1:tdn3a4  =   0.      1:tdn3a5  =   0.     
 +1:tdn3a6  =   0.      1:tdn3a7  =   0.      1:tdn3a8  =   0.     
 +1:tdn3a9  =   0.      1:tdn4a10 =   0.      1:tdn4a11 =   0.     
 +1:tdn4a12 =   0.      1:tdn4a13 =   0.      1:tdn4a14 =   0.     
 +1:tdn4a15 =   0.      1:tdn4a16 =   0.      1:tdn4a17 =   0.     
 +1:tdn4a18 =   0.      1:tdn4a19 =   0.      1:tdn4a2  =   0.     
 +1:tdn4a20 =   0.      1:tdn4a21 =   0.      1:tdn4a22 =   0.     
 +1:tdn4a23 =   0.      1:tdn4a24 =   0.      1:tdn4a25 =   0.     
 +1:tdn4a26 =   0.      1:tdn4a27 =   0.      1:tdn4a28 =   0.     
 +1:tdn4a29 =   0.      1:tdn4a3  =   0.      1:tdn4a30 =   0.     
 +1:tdn4a31 =   0.      1:tdn4a32 =   0.      1:tdn4a4  =   0.     
 +1:tdn4a5  =   0.      1:tdn4a6  =   0.      1:tdn4a7  =   0.     
 +1:tdn4a8  =   0.      1:tdn4a9  =   0.      1:tdn5a10 =   0.     
 +1:tdn5a11 =   0.      1:tdn5a12 =   0.      1:tdn5a13 =   0.     
 +1:tdn5a14 =   0.      1:tdn5a15 =   0.      1:tdn5a16 =   0.     
 +1:tdn5a17 =   0.      1:tdn5a18 =   0.      1:tdn5a19 =   0.     
 +1:tdn5a2  =   0.      1:tdn5a20 =   0.      1:tdn5a21 =   0.     
 +1:tdn5a22 =   0.      1:tdn5a23 =   0.      1:tdn5a24 =   0.     
 +1:tdn5a25 =   0.      1:tdn5a26 =   0.      1:tdn5a27 =   0.     
 +1:tdn5a28 =   0.      1:tdn5a29 =   0.      1:tdn5a3  =   0.     
 +1:tdn5a30 =   0.      1:tdn5a31 =   0.      1:tdn5a32 =   0.     
 +1:tdn5a4  =   0.      1:tdn5a5  =   0.      1:tdn5a6  =   0.     
 +1:tdn5a7  =   0.      1:tdn5a8  =   0.      1:tdn5a9  =   0.     
 +1:tdn6a10 =   0.      1:tdn6a11 =   0.      1:tdn6a12 =   0.     
 +1:tdn6a13 =   0.      1:tdn6a14 =   0.      1:tdn6a15 =   0.     
 +1:tdn6a16 =   0.      1:tdn6a17 =   0.      1:tdn6a18 =   0.     
 +1:tdn6a19 =   0.      1:tdn6a2  =   0.      1:tdn6a20 =   0.     
 +1:tdn6a21 =   0.      1:tdn6a22 =   0.      1:tdn6a23 =   0.     
 +1:tdn6a24 =   0.      1:tdn6a25 =   0.      1:tdn6a26 =   0.     
 +1:tdn6a27 =   0.      1:tdn6a28 =   0.      1:tdn6a29 =   0.     
 +1:tdn6a3  =   0.      1:tdn6a30 =   0.      1:tdn6a31 =   0.     
 +1:tdn6a32 =   0.      1:tdn6a4  =   0.      1:tdn6a5  =   0.     
 +1:tdn6a6  =   0.      1:tdn6a7  =   0.      1:tdn6a8  =   0.     
 +1:tdn6a9  =   0.      1:tdn7a10 =   0.      1:tdn7a11 =   0.     
 +1:tdn7a12 =   0.      1:tdn7a13 =   0.      1:tdn7a14 =   0.     
 +1:tdn7a15 =   0.      1:tdn7a16 =   0.      1:tdn7a17 =   0.     
 +1:tdn7a18 =   0.      1:tdn7a19 =   0.      1:tdn7a2  =   0.     
 +1:tdn7a20 =   0.      1:tdn7a21 =   0.      1:tdn7a22 =   0.     
 +1:tdn7a23 =   0.      1:tdn7a24 =   0.      1:tdn7a25 =   0.     
 +1:tdn7a26 =   0.      1:tdn7a27 =   0.      1:tdn7a28 =   0.     
 +1:tdn7a29 =   0.      1:tdn7a3  =   0.      1:tdn7a30 =   0.     
 +1:tdn7a31 =   0.      1:tdn7a32 =   0.      1:tdn7a4  =   0.     
 +1:tdn7a5  =   0.      1:tdn7a6  =   0.      1:tdn7a7  =   0.     
 +1:tdn7a8  =   0.      1:tdn7a9  =   0.      1:tdn8a10 =   0.     
 +1:tdn8a11 =   0.      1:tdn8a12 =   0.      1:tdn8a13 =   0.     
 +1:tdn8a14 =   0.      1:tdn8a15 =   0.      1:tdn8a16 =   0.     
 +1:tdn8a17 =   0.      1:tdn8a18 =   0.      1:tdn8a19 =   0.     
 +1:tdn8a2  =   0.      1:tdn8a20 =   0.      1:tdn8a21 =   0.     
 +1:tdn8a22 =   0.      1:tdn8a23 =   0.      1:tdn8a24 =   0.     
 +1:tdn8a25 =   0.      1:tdn8a26 =   0.      1:tdn8a27 =   0.     
 +1:tdn8a28 =   0.      1:tdn8a29 =   0.      1:tdn8a3  =   0.     
 +1:tdn8a30 =   0.      1:tdn8a31 =   0.      1:tdn8a32 =   0.     
 +1:tdn8a4  =   0.      1:tdn8a5  =   0.      1:tdn8a6  =   0.     
 +1:tdn8a7  =   0.      1:tdn8a8  =   0.      1:tdn8a9  =   0.     
 +1:tdn9a10 =   0.      1:tdn9a11 =   0.      1:tdn9a12 =   0.     
 +1:tdn9a13 =   0.      1:tdn9a14 =   0.      1:tdn9a15 =   0.     
 +1:tdn9a16 =   0.      1:tdn9a17 =   0.      1:tdn9a18 =   0.     
 +1:tdn9a19 =   0.      1:tdn9a2  =   0.      1:tdn9a20 =   0.     
 +1:tdn9a21 =   0.      1:tdn9a22 =   0.      1:tdn9a23 =   0.     
 +1:tdn9a24 =   0.      1:tdn9a25 =   0.      1:tdn9a26 =   0.     
 +1:tdn9a27 =   0.      1:tdn9a28 =   0.      1:tdn9a29 =   0.     
 +1:tdn9a3  =   0.      1:tdn9a30 =   0.      1:tdn9a31 =   0.     
 +1:tdn9a32 =   0.      1:tdn9a4  =   0.      1:tdn9a5  =   0.     
 +1:tdn9a6  =   0.      1:tdn9a7  =   0.      1:tdn9a8  =   0.     
 +1:tdn9a9  =   0.      1:tdnga10 =   0.      1:tdnga11 =   0.     
 +1:tdnga12 =   0.      1:tdnga13 =   0.      1:tdnga14 =   0.     
 +1:tdnga15 =   0.      1:tdnga16 =   0.      1:tdnga17 =   0.     
 +1:tdnga18 =   0.      1:tdnga19 =   0.      1:tdnga2  =   0.     
 +1:tdnga20 =   0.      1:tdnga21 =   0.      1:tdnga22 =   0.     
 +1:tdnga23 =   0.      1:tdnga24 =   0.      1:tdnga25 =   0.     
 +1:tdnga26 =   0.      1:tdnga27 =   0.      1:tdnga28 =   0.     
 +1:tdnga29 =   0.      1:tdnga3  =   0.      1:tdnga30 =   0.     
 +1:tdnga31 =   0.      1:tdnga32 =   0.      1:tdnga4  =   0.     
 +1:tdnga5  =   0.      1:tdnga6  =   0.      1:tdnga7  =   0.     
 +1:tdnga8  =   0.      1:tdnga9  =   0.      1:tdnva10 =   0.     
 +1:tdnva11 =   0.      1:tdnva12 =   0.      1:tdnva13 =   0.     
 +1:tdnva14 =   0.      1:tdnva15 =   0.      1:tdnva16 =   0.     
 +1:tdnva17 =   0.      1:tdnva18 =   0.      1:tdnva19 =   0.     
 +1:tdnva2  =   0.      1:tdnva20 =   0.      1:tdnva21 =   0.     
 +1:tdnva22 =   0.      1:tdnva23 =   0.      1:tdnva24 =   0.     
 +1:tdnva25 =   0.      1:tdnva26 =   0.      1:tdnva27 =   0.     
 +1:tdnva28 =   0.      1:tdnva29 =   0.      1:tdnva3  =   0.     
 +1:tdnva30 =   0.      1:tdnva31 =   0.      1:tdnva32 =   0.     
 +1:tdnva4  =   0.      1:tdnva5  =   0.      1:tdnva6  =   0.     
 +1:tdnva7  =   0.      1:tdnva8  =   0.      1:tdnva9  =   0.     

 ******  
 *a bus interconnect circuit with 34 bus line 16 segment.

  ******  transient analysis tnom=  25.000 temp=  25.000 *****
x

        time    voltage      voltage      voltage      voltage    
                  tdn1a9       tdn2a9       tdn3a9       tdn4a9   
    0.            0.           0.           0.           0.       
    1.00000p      0.           0.           0.           0.       
    2.00000p      0.           0.           0.           0.       
    3.00000p      0.           0.           0.           0.       
    4.00000p      0.           0.           0.           0.       
    5.00000p      0.           0.           0.           0.       
    6.00000p      0.           0.           0.           0.       
    7.00000p      0.           0.           0.           0.       
    8.00000p      0.           0.           0.           0.       
    9.00000p      0.           0.           0.           0.       
   10.00000p      0.           0.           0.           0.       
   11.00000p      0.           0.           0.           0.       
   12.00000p      0.           0.           0.           0.       
   13.00000p      0.           0.           0.           0.       
   14.00000p      0.           0.           0.           0.       
   15.00000p      0.           0.           0.           0.       
   16.00000p      0.           0.           0.           0.       
   17.00000p      0.           0.           0.           0.       
   18.00000p      0.           0.           0.           0.       
   19.00000p      0.           0.           0.           0.       
   20.00000p      0.           0.           0.           0.       
   21.00000p      0.           0.           0.           0.       
   22.00000p      0.           0.           0.           0.       
   23.00000p      0.           0.           0.           0.       
   24.00000p      0.           0.           0.           0.       
   25.00000p      0.           0.           0.           0.       
   26.00000p      0.           0.           0.           0.       
   27.00000p      0.           0.           0.           0.       
   28.00000p      0.           0.           0.           0.       
   29.00000p      0.           0.           0.           0.       
   30.00000p      0.           0.           0.           0.       
   31.00000p      0.           0.           0.           0.       
   32.00000p      0.           0.           0.           0.       
   33.00000p      0.           0.           0.           0.       
   34.00000p      0.           0.           0.           0.       
   35.00000p      0.           0.           0.           0.       
   36.00000p      0.           0.           0.           0.       
   37.00000p      0.           0.           0.           0.       
   38.00000p      0.           0.           0.           0.       
   39.00000p      0.           0.           0.           0.       
   40.00000p      0.           0.           0.           0.       
   41.00000p      0.           0.           0.           0.       
   42.00000p      0.           0.           0.           0.       
   43.00000p      0.           0.           0.           0.       
   44.00000p      0.           0.           0.           0.       
   45.00000p      0.           0.           0.           0.       
   46.00000p      0.           0.           0.           0.       
   47.00000p      0.           0.           0.           0.       
   48.00000p      0.           0.           0.           0.       
   49.00000p      0.           0.           0.           0.       
   50.00000p      0.           0.           0.           0.       
   51.00000p      0.           0.           0.           0.       
   52.00000p      0.           0.           0.           0.       
   53.00000p      0.           0.           0.           0.       
   54.00000p      0.           0.           0.           0.       
   55.00000p      0.           0.           0.           0.       
   56.00000p      0.           0.           0.           0.       
   57.00000p      0.           0.           0.           0.       
   58.00000p      0.           0.           0.           0.       
   59.00000p      0.           0.           0.           0.       
   60.00000p      0.           0.           0.           0.       
   61.00000p      0.           0.           0.           0.       
   62.00000p      0.           0.           0.           0.       
   63.00000p      0.           0.           0.           0.       
   64.00000p      0.           0.           0.           0.       
   65.00000p      0.           0.           0.           0.       
   66.00000p      0.           0.           0.           0.       
   67.00000p      0.           0.           0.           0.       
   68.00000p      0.           0.           0.           0.       
   69.00000p      0.           0.           0.           0.       
   70.00000p      0.           0.           0.           0.       
   71.00000p      0.           0.           0.           0.       
   72.00000p      0.           0.           0.           0.       
   73.00000p      0.           0.           0.           0.       
   74.00000p      0.           0.           0.           0.       
   75.00000p      0.           0.           0.           0.       
   76.00000p      0.           0.           0.           0.       
   77.00000p      0.           0.           0.           0.       
   78.00000p      0.           0.           0.           0.       
   79.00000p      0.           0.           0.           0.       
   80.00000p      0.           0.           0.           0.       
   81.00000p      0.           0.           0.           0.       
   82.00000p      0.           0.           0.           0.       
   83.00000p      0.           0.           0.           0.       
   84.00000p      0.           0.           0.           0.       
   85.00000p      0.           0.           0.           0.       
   86.00000p      0.           0.           0.           0.       
   87.00000p      0.           0.           0.           0.       
   88.00000p      0.           0.           0.           0.       
   89.00000p      0.           0.           0.           0.       
   90.00000p      0.           0.           0.           0.       
   91.00000p      0.           0.           0.           0.       
   92.00000p      0.           0.           0.           0.       
   93.00000p      0.           0.           0.           0.       
   94.00000p      0.           0.           0.           0.       
   95.00000p      0.           0.           0.           0.       
   96.00000p      0.           0.           0.           0.       
   97.00000p      0.           0.           0.           0.       
   98.00000p      0.           0.           0.           0.       
   99.00000p      0.           0.           0.           0.       
  100.00000p      0.           0.           0.           0.       
  101.00000p      0.           0.           0.           0.       
  102.00000p      0.           0.           0.           0.       
  103.00000p      0.           0.           0.           0.       
  104.00000p      0.           0.           0.           0.       
  105.00000p      0.           0.           0.           0.       
  106.00000p      0.           0.           0.           0.       
  107.00000p      0.           0.           0.           0.       
  108.00000p      0.           0.           0.           0.       
  109.00000p      0.           0.           0.           0.       
  110.00000p      0.           0.           0.           0.       
  111.00000p      0.           0.           0.           0.       
  112.00000p      0.           0.           0.           0.       
  113.00000p      0.           0.           0.           0.       
  114.00000p      0.           0.           0.           0.       
  115.00000p      0.           0.           0.           0.       
  116.00000p      0.           0.           0.           0.       
  117.00000p      0.           0.           0.           0.       
  118.00000p      0.           0.           0.           0.       
  119.00000p      0.           0.           0.           0.       
  120.00000p      0.           0.           0.           0.       
  121.00000p      0.           0.           0.           0.       
  122.00000p      0.           0.           0.           0.       
  123.00000p      0.           0.           0.           0.       
  124.00000p      0.           0.           0.           0.       
  125.00000p      0.           0.           0.           0.       
  126.00000p      0.           0.           0.           0.       
  127.00000p      0.           0.           0.           0.       
  128.00000p      0.           0.           0.           0.       
  129.00000p      0.           0.           0.           0.       
  130.00000p      0.           0.           0.           0.       
  131.00000p      0.           0.           0.           0.       
  132.00000p      0.           0.           0.           0.       
  133.00000p      0.           0.           0.           0.       
  134.00000p      0.           0.           0.           0.       
  135.00000p      0.           0.           0.           0.       
  136.00000p      0.           0.           0.           0.       
  137.00000p      0.           0.           0.           0.       
  138.00000p      0.           0.           0.           0.       
  139.00000p      0.           0.           0.           0.       
  140.00000p      0.           0.           0.           0.       
  141.00000p      0.           0.           0.           0.       
  142.00000p      0.           0.           0.           0.       
  143.00000p      0.           0.           0.           0.       
  144.00000p      0.           0.           0.           0.       
  145.00000p      0.           0.           0.           0.       
  146.00000p      0.           0.           0.           0.       
  147.00000p      0.           0.           0.           0.       
  148.00000p      0.           0.           0.           0.       
  149.00000p      0.           0.           0.           0.       
  150.00000p      0.           0.           0.           0.       
  151.00000p      0.           0.           0.           0.       
  152.00000p      0.           0.           0.           0.       
  153.00000p      0.           0.           0.           0.       
  154.00000p      0.           0.           0.           0.       
  155.00000p      0.           0.           0.           0.       
  156.00000p      0.           0.           0.           0.       
  157.00000p      0.           0.           0.           0.       
  158.00000p      0.           0.           0.           0.       
  159.00000p      0.           0.           0.           0.       
  160.00000p      0.           0.           0.           0.       
  161.00000p      0.           0.           0.           0.       
  162.00000p      0.           0.           0.           0.       
  163.00000p      0.           0.           0.           0.       
  164.00000p      0.           0.           0.           0.       
  165.00000p      0.           0.           0.           0.       
  166.00000p      0.           0.           0.           0.       
  167.00000p      0.           0.           0.           0.       
  168.00000p      0.           0.           0.           0.       
  169.00000p      0.           0.           0.           0.       
  170.00000p      0.           0.           0.           0.       
  171.00000p      0.           0.           0.           0.       
  172.00000p      0.           0.           0.           0.       
  173.00000p      0.           0.           0.           0.       
  174.00000p      0.           0.           0.           0.       
  175.00000p      0.           0.           0.           0.       
  176.00000p      0.           0.           0.           0.       
  177.00000p      0.           0.           0.           0.       
  178.00000p      0.           0.           0.           0.       
  179.00000p      0.           0.           0.           0.       
  180.00000p      0.           0.           0.           0.       
  181.00000p      0.           0.           0.           0.       
  182.00000p      0.           0.           0.           0.       
  183.00000p      0.           0.           0.           0.       
  184.00000p      0.           0.           0.           0.       
  185.00000p      0.           0.           0.           0.       
  186.00000p      0.           0.           0.           0.       
  187.00000p      0.           0.           0.           0.       
  188.00000p      0.           0.           0.           0.       
  189.00000p      0.           0.           0.           0.       
  190.00000p      0.           0.           0.           0.       
  191.00000p      0.           0.           0.           0.       
  192.00000p      0.           0.           0.           0.       
  193.00000p      0.           0.           0.           0.       
  194.00000p      0.           0.           0.           0.       
  195.00000p      0.           0.           0.           0.       
  196.00000p      0.           0.           0.           0.       
  197.00000p      0.           0.           0.           0.       
  198.00000p      0.           0.           0.           0.       
  199.00000p      0.           0.           0.           0.       
  200.00000p      0.           0.           0.           0.       
  201.00000p      0.           0.           0.           0.       
  202.00000p      0.           0.           0.           0.       
  203.00000p      0.           0.           0.           0.       
  204.00000p      0.           0.           0.           0.       
  205.00000p      0.           0.           0.           0.       
  206.00000p      0.           0.           0.           0.       
  207.00000p      0.           0.           0.           0.       
  208.00000p      0.           0.           0.           0.       
  209.00000p      0.           0.           0.           0.       
  210.00000p      0.           0.           0.           0.       
  211.00000p      0.           0.           0.           0.       
  212.00000p      0.           0.           0.           0.       
  213.00000p      0.           0.           0.           0.       
  214.00000p      0.           0.           0.           0.       
  215.00000p      0.           0.           0.           0.       
  216.00000p      0.           0.           0.           0.       
  217.00000p      0.           0.           0.           0.       
  218.00000p      0.           0.           0.           0.       
  219.00000p      0.           0.           0.           0.       
  220.00000p      0.           0.           0.           0.       
  221.00000p      0.           0.           0.           0.       
  222.00000p      0.           0.           0.           0.       
  223.00000p      0.           0.           0.           0.       
  224.00000p      0.           0.           0.           0.       
  225.00000p      0.           0.           0.           0.       
  226.00000p      0.           0.           0.           0.       
  227.00000p      0.           0.           0.           0.       
  228.00000p      0.           0.           0.           0.       
  229.00000p      0.           0.           0.           0.       
  230.00000p      0.           0.           0.           0.       
  231.00000p      0.           0.           0.           0.       
  232.00000p      0.           0.           0.           0.       
  233.00000p      0.           0.           0.           0.       
  234.00000p      0.           0.           0.           0.       
  235.00000p      0.           0.           0.           0.       
  236.00000p      0.           0.           0.           0.       
  237.00000p      0.           0.           0.           0.       
  238.00000p      0.           0.           0.           0.       
  239.00000p      0.           0.           0.           0.       
  240.00000p      0.           0.           0.           0.       
  241.00000p      0.           0.           0.           0.       
  242.00000p      0.           0.           0.           0.       
  243.00000p      0.           0.           0.           0.       
  244.00000p      0.           0.           0.           0.       
  245.00000p      0.           0.           0.           0.       
  246.00000p      0.           0.           0.           0.       
  247.00000p      0.           0.           0.           0.       
  248.00000p      0.           0.           0.           0.       
  249.00000p      0.           0.           0.           0.       
  250.00000p      0.           0.           0.           0.       
  251.00000p      0.           0.           0.           0.       
  252.00000p      0.           0.           0.           0.       
  253.00000p      0.           0.           0.           0.       
  254.00000p      0.           0.           0.           0.       
  255.00000p      0.           0.           0.           0.       
  256.00000p      0.           0.           0.           0.       
  257.00000p      0.           0.           0.           0.       
  258.00000p      0.           0.           0.           0.       
  259.00000p      0.           0.           0.           0.       
  260.00000p      0.           0.           0.           0.       
  261.00000p      0.           0.           0.           0.       
  262.00000p      0.           0.           0.           0.       
  263.00000p      0.           0.           0.           0.       
  264.00000p      0.           0.           0.           0.       
  265.00000p      0.           0.           0.           0.       
  266.00000p      0.           0.           0.           0.       
  267.00000p      0.           0.           0.           0.       
  268.00000p      0.           0.           0.           0.       
  269.00000p      0.           0.           0.           0.       
  270.00000p      0.           0.           0.           0.       
  271.00000p      0.           0.           0.           0.       
  272.00000p      0.           0.           0.           0.       
  273.00000p      0.           0.           0.           0.       
  274.00000p      0.           0.           0.           0.       
  275.00000p      0.           0.           0.           0.       
  276.00000p      0.           0.           0.           0.       
  277.00000p      0.           0.           0.           0.       
  278.00000p      0.           0.           0.           0.       
  279.00000p      0.           0.           0.           0.       
  280.00000p      0.           0.           0.           0.       
  281.00000p      0.           0.           0.           0.       
  282.00000p      0.           0.           0.           0.       
  283.00000p      0.           0.           0.           0.       
  284.00000p      0.           0.           0.           0.       
  285.00000p      0.           0.           0.           0.       
  286.00000p      0.           0.           0.           0.       
  287.00000p      0.           0.           0.           0.       
  288.00000p      0.           0.           0.           0.       
  289.00000p      0.           0.           0.           0.       
  290.00000p      0.           0.           0.           0.       
  291.00000p      0.           0.           0.           0.       
  292.00000p      0.           0.           0.           0.       
  293.00000p      0.           0.           0.           0.       
  294.00000p      0.           0.           0.           0.       
  295.00000p      0.           0.           0.           0.       
  296.00000p      0.           0.           0.           0.       
  297.00000p      0.           0.           0.           0.       
  298.00000p      0.           0.           0.           0.       
  299.00000p      0.           0.           0.           0.       
  300.00000p      0.           0.           0.           0.       
  301.00000p      0.           0.           0.           0.       
  302.00000p      0.           0.           0.           0.       
  303.00000p      0.           0.           0.           0.       
  304.00000p      0.           0.           0.           0.       
  305.00000p      0.           0.           0.           0.       
  306.00000p      0.           0.           0.           0.       
  307.00000p      0.           0.           0.           0.       
  308.00000p      0.           0.           0.           0.       
  309.00000p      0.           0.           0.           0.       
  310.00000p      0.           0.           0.           0.       
  311.00000p      0.           0.           0.           0.       
  312.00000p      0.           0.           0.           0.       
  313.00000p      0.           0.           0.           0.       
  314.00000p      0.           0.           0.           0.       
  315.00000p      0.           0.           0.           0.       
  316.00000p      0.           0.           0.           0.       
  317.00000p      0.           0.           0.           0.       
  318.00000p      0.           0.           0.           0.       
  319.00000p      0.           0.           0.           0.       
  320.00000p      0.           0.           0.           0.       
  321.00000p      0.           0.           0.           0.       
  322.00000p      0.           0.           0.           0.       
  323.00000p      0.           0.           0.           0.       
  324.00000p      0.           0.           0.           0.       
  325.00000p      0.           0.           0.           0.       
  326.00000p      0.           0.           0.           0.       
  327.00000p      0.           0.           0.           0.       
  328.00000p      0.           0.           0.           0.       
  329.00000p      0.           0.           0.           0.       
  330.00000p      0.           0.           0.           0.       
  331.00000p      0.           0.           0.           0.       
  332.00000p      0.           0.           0.           0.       
  333.00000p      0.           0.           0.           0.       
  334.00000p      0.           0.           0.           0.       
  335.00000p      0.           0.           0.           0.       
  336.00000p      0.           0.           0.           0.       
  337.00000p      0.           0.           0.           0.       
  338.00000p      0.           0.           0.           0.       
  339.00000p      0.           0.           0.           0.       
  340.00000p      0.           0.           0.           0.       
  341.00000p      0.           0.           0.           0.       
  342.00000p      0.           0.           0.           0.       
  343.00000p      0.           0.           0.           0.       
  344.00000p      0.           0.           0.           0.       
  345.00000p      0.           0.           0.           0.       
  346.00000p      0.           0.           0.           0.       
  347.00000p      0.           0.           0.           0.       
  348.00000p      0.           0.           0.           0.       
  349.00000p      0.           0.           0.           0.       
  350.00000p      0.           0.           0.           0.       
  351.00000p      0.           0.           0.           0.       
  352.00000p      0.           0.           0.           0.       
  353.00000p      0.           0.           0.           0.       
  354.00000p      0.           0.           0.           0.       
  355.00000p      0.           0.           0.           0.       
  356.00000p      0.           0.           0.           0.       
  357.00000p      0.           0.           0.           0.       
  358.00000p      0.           0.           0.           0.       
  359.00000p      0.           0.           0.           0.       
  360.00000p      0.           0.           0.           0.       
  361.00000p      0.           0.           0.           0.       
  362.00000p      0.           0.           0.           0.       
  363.00000p      0.           0.           0.           0.       
  364.00000p      0.           0.           0.           0.       
  365.00000p      0.           0.           0.           0.       
  366.00000p      0.           0.           0.           0.       
  367.00000p      0.           0.           0.           0.       
  368.00000p      0.           0.           0.           0.       
  369.00000p      0.           0.           0.           0.       
  370.00000p      0.           0.           0.           0.       
  371.00000p      0.           0.           0.           0.       
  372.00000p      0.           0.           0.           0.       
  373.00000p      0.           0.           0.           0.       
  374.00000p      0.           0.           0.           0.       
  375.00000p      0.           0.           0.           0.       
  376.00000p      0.           0.           0.           0.       
  377.00000p      0.           0.           0.           0.       
  378.00000p      0.           0.           0.           0.       
  379.00000p      0.           0.           0.           0.       
  380.00000p      0.           0.           0.           0.       
  381.00000p      0.           0.           0.           0.       
  382.00000p      0.           0.           0.           0.       
  383.00000p      0.           0.           0.           0.       
  384.00000p      0.           0.           0.           0.       
  385.00000p      0.           0.           0.           0.       
  386.00000p      0.           0.           0.           0.       
  387.00000p      0.           0.           0.           0.       
  388.00000p      0.           0.           0.           0.       
  389.00000p      0.           0.           0.           0.       
  390.00000p      0.           0.           0.           0.       
  391.00000p      0.           0.           0.           0.       
  392.00000p      0.           0.           0.           0.       
  393.00000p      0.           0.           0.           0.       
  394.00000p      0.           0.           0.           0.       
  395.00000p      0.           0.           0.           0.       
  396.00000p      0.           0.           0.           0.       
  397.00000p      0.           0.           0.           0.       
  398.00000p      0.           0.           0.           0.       
  399.00000p      0.           0.           0.           0.       
  400.00000p      0.           0.           0.           0.       
  401.00000p      0.           0.           0.           0.       
  402.00000p      0.           0.           0.           0.       
  403.00000p      0.           0.           0.           0.       
  404.00000p      0.           0.           0.           0.       
  405.00000p      0.           0.           0.           0.       
  406.00000p      0.           0.           0.           0.       
  407.00000p      0.           0.           0.           0.       
  408.00000p      0.           0.           0.           0.       
  409.00000p      0.           0.           0.           0.       
  410.00000p      0.           0.           0.           0.       
  411.00000p      0.           0.           0.           0.       
  412.00000p      0.           0.           0.           0.       
  413.00000p      0.           0.           0.           0.       
  414.00000p      0.           0.           0.           0.       
  415.00000p      0.           0.           0.           0.       
  416.00000p      0.           0.           0.           0.       
  417.00000p      0.           0.           0.           0.       
  418.00000p      0.           0.           0.           0.       
  419.00000p      0.           0.           0.           0.       
  420.00000p      0.           0.           0.           0.       
  421.00000p      0.           0.           0.           0.       
  422.00000p      0.           0.           0.           0.       
  423.00000p      0.           0.           0.           0.       
  424.00000p      0.           0.           0.           0.       
  425.00000p      0.           0.           0.           0.       
  426.00000p      0.           0.           0.           0.       
  427.00000p      0.           0.           0.           0.       
  428.00000p      0.           0.           0.           0.       
  429.00000p      0.           0.           0.           0.       
  430.00000p      0.           0.           0.           0.       
  431.00000p      0.           0.           0.           0.       
  432.00000p      0.           0.           0.           0.       
  433.00000p      0.           0.           0.           0.       
  434.00000p      0.           0.           0.           0.       
  435.00000p      0.           0.           0.           0.       
  436.00000p      0.           0.           0.           0.       
  437.00000p      0.           0.           0.           0.       
  438.00000p      0.           0.           0.           0.       
  439.00000p      0.           0.           0.           0.       
  440.00000p      0.           0.           0.           0.       
  441.00000p      0.           0.           0.           0.       
  442.00000p      0.           0.           0.           0.       
  443.00000p      0.           0.           0.           0.       
  444.00000p      0.           0.           0.           0.       
  445.00000p      0.           0.           0.           0.       
  446.00000p      0.           0.           0.           0.       
  447.00000p      0.           0.           0.           0.       
  448.00000p      0.           0.           0.           0.       
  449.00000p      0.           0.           0.           0.       
  450.00000p      0.           0.           0.           0.       
  451.00000p      0.           0.           0.           0.       
  452.00000p      0.           0.           0.           0.       
  453.00000p      0.           0.           0.           0.       
  454.00000p      0.           0.           0.           0.       
  455.00000p      0.           0.           0.           0.       
  456.00000p      0.           0.           0.           0.       
  457.00000p      0.           0.           0.           0.       
  458.00000p      0.           0.           0.           0.       
  459.00000p      0.           0.           0.           0.       
  460.00000p      0.           0.           0.           0.       
  461.00000p      0.           0.           0.           0.       
  462.00000p      0.           0.           0.           0.       
  463.00000p      0.           0.           0.           0.       
  464.00000p      0.           0.           0.           0.       
  465.00000p      0.           0.           0.           0.       
  466.00000p      0.           0.           0.           0.       
  467.00000p      0.           0.           0.           0.       
  468.00000p      0.           0.           0.           0.       
  469.00000p      0.           0.           0.           0.       
  470.00000p      0.           0.           0.           0.       
  471.00000p      0.           0.           0.           0.       
  472.00000p      0.           0.           0.           0.       
  473.00000p      0.           0.           0.           0.       
  474.00000p      0.           0.           0.           0.       
  475.00000p      0.           0.           0.           0.       
  476.00000p      0.           0.           0.           0.       
  477.00000p      0.           0.           0.           0.       
  478.00000p      0.           0.           0.           0.       
  479.00000p      0.           0.           0.           0.       
  480.00000p      0.           0.           0.           0.       
  481.00000p      0.           0.           0.           0.       
  482.00000p      0.           0.           0.           0.       
  483.00000p      0.           0.           0.           0.       
  484.00000p      0.           0.           0.           0.       
  485.00000p      0.           0.           0.           0.       
  486.00000p      0.           0.           0.           0.       
  487.00000p      0.           0.           0.           0.       
  488.00000p      0.           0.           0.           0.       
  489.00000p      0.           0.           0.           0.       
  490.00000p      0.           0.           0.           0.       
  491.00000p      0.           0.           0.           0.       
  492.00000p      0.           0.           0.           0.       
  493.00000p      0.           0.           0.           0.       
  494.00000p      0.           0.           0.           0.       
  495.00000p      0.           0.           0.           0.       
  496.00000p      0.           0.           0.           0.       
  497.00000p      0.           0.           0.           0.       
  498.00000p      0.           0.           0.           0.       
  499.00000p      0.           0.           0.           0.       
  500.00000p      0.           0.           0.           0.       
  501.00000p      0.           0.           0.           0.       
  502.00000p      0.           0.           0.           0.       
  503.00000p      0.           0.           0.           0.       
  504.00000p      0.           0.           0.           0.       
  505.00000p      0.           0.           0.           0.       
  506.00000p      0.           0.           0.           0.       
  507.00000p      0.           0.           0.           0.       
  508.00000p      0.           0.           0.           0.       
  509.00000p      0.           0.           0.           0.       
  510.00000p      0.           0.           0.           0.       
  511.00000p      0.           0.           0.           0.       
  512.00000p      0.           0.           0.           0.       
  513.00000p      0.           0.           0.           0.       
  514.00000p      0.           0.           0.           0.       
  515.00000p      0.           0.           0.           0.       
  516.00000p      0.           0.           0.           0.       
  517.00000p      0.           0.           0.           0.       
  518.00000p      0.           0.           0.           0.       
  519.00000p      0.           0.           0.           0.       
  520.00000p      0.           0.           0.           0.       
  521.00000p      0.           0.           0.           0.       
  522.00000p      0.           0.           0.           0.       
  523.00000p      0.           0.           0.           0.       
  524.00000p      0.           0.           0.           0.       
  525.00000p      0.           0.           0.           0.       
  526.00000p      0.           0.           0.           0.       
  527.00000p      0.           0.           0.           0.       
  528.00000p      0.           0.           0.           0.       
  529.00000p      0.           0.           0.           0.       
  530.00000p      0.           0.           0.           0.       
  531.00000p      0.           0.           0.           0.       
  532.00000p      0.           0.           0.           0.       
  533.00000p      0.           0.           0.           0.       
  534.00000p      0.           0.           0.           0.       
  535.00000p      0.           0.           0.           0.       
  536.00000p      0.           0.           0.           0.       
  537.00000p      0.           0.           0.           0.       
  538.00000p      0.           0.           0.           0.       
  539.00000p      0.           0.           0.           0.       
  540.00000p      0.           0.           0.           0.       
  541.00000p      0.           0.           0.           0.       
  542.00000p      0.           0.           0.           0.       
  543.00000p      0.           0.           0.           0.       
  544.00000p      0.           0.           0.           0.       
  545.00000p      0.           0.           0.           0.       
  546.00000p      0.           0.           0.           0.       
  547.00000p      0.           0.           0.           0.       
  548.00000p      0.           0.           0.           0.       
  549.00000p      0.           0.           0.           0.       
  550.00000p      0.           0.           0.           0.       
  551.00000p      0.           0.           0.           0.       
  552.00000p      0.           0.           0.           0.       
  553.00000p      0.           0.           0.           0.       
  554.00000p      0.           0.           0.           0.       
  555.00000p      0.           0.           0.           0.       
  556.00000p      0.           0.           0.           0.       
  557.00000p      0.           0.           0.           0.       
  558.00000p      0.           0.           0.           0.       
  559.00000p      0.           0.           0.           0.       
  560.00000p      0.           0.           0.           0.       
  561.00000p      0.           0.           0.           0.       
  562.00000p      0.           0.           0.           0.       
  563.00000p      0.           0.           0.           0.       
  564.00000p      0.           0.           0.           0.       
  565.00000p      0.           0.           0.           0.       
  566.00000p      0.           0.           0.           0.       
  567.00000p      0.           0.           0.           0.       
  568.00000p      0.           0.           0.           0.       
  569.00000p      0.           0.           0.           0.       
  570.00000p      0.           0.           0.           0.       
  571.00000p      0.           0.           0.           0.       
  572.00000p      0.           0.           0.           0.       
  573.00000p      0.           0.           0.           0.       
  574.00000p      0.           0.           0.           0.       
  575.00000p      0.           0.           0.           0.       
  576.00000p      0.           0.           0.           0.       
  577.00000p      0.           0.           0.           0.       
  578.00000p      0.           0.           0.           0.       
  579.00000p      0.           0.           0.           0.       
  580.00000p      0.           0.           0.           0.       
  581.00000p      0.           0.           0.           0.       
  582.00000p      0.           0.           0.           0.       
  583.00000p      0.           0.           0.           0.       
  584.00000p      0.           0.           0.           0.       
  585.00000p      0.           0.           0.           0.       
  586.00000p      0.           0.           0.           0.       
  587.00000p      0.           0.           0.           0.       
  588.00000p      0.           0.           0.           0.       
  589.00000p      0.           0.           0.           0.       
  590.00000p      0.           0.           0.           0.       
  591.00000p      0.           0.           0.           0.       
  592.00000p      0.           0.           0.           0.       
  593.00000p      0.           0.           0.           0.       
  594.00000p      0.           0.           0.           0.       
  595.00000p      0.           0.           0.           0.       
  596.00000p      0.           0.           0.           0.       
  597.00000p      0.           0.           0.           0.       
  598.00000p      0.           0.           0.           0.       
  599.00000p      0.           0.           0.           0.       
  600.00000p      0.           0.           0.           0.       
  601.00000p      0.           0.           0.           0.       
  602.00000p      0.           0.           0.           0.       
  603.00000p      0.           0.           0.           0.       
  604.00000p      0.           0.           0.           0.       
  605.00000p      0.           0.           0.           0.       
  606.00000p      0.           0.           0.           0.       
  607.00000p      0.           0.           0.           0.       
  608.00000p      0.           0.           0.           0.       
  609.00000p      0.           0.           0.           0.       
  610.00000p      0.           0.           0.           0.       
  611.00000p      0.           0.           0.           0.       
  612.00000p      0.           0.           0.           0.       
  613.00000p      0.           0.           0.           0.       
  614.00000p      0.           0.           0.           0.       
  615.00000p      0.           0.           0.           0.       
  616.00000p      0.           0.           0.           0.       
  617.00000p      0.           0.           0.           0.       
  618.00000p      0.           0.           0.           0.       
  619.00000p      0.           0.           0.           0.       
  620.00000p      0.           0.           0.           0.       
  621.00000p      0.           0.           0.           0.       
  622.00000p      0.           0.           0.           0.       
  623.00000p      0.           0.           0.           0.       
  624.00000p      0.           0.           0.           0.       
  625.00000p      0.           0.           0.           0.       
  626.00000p      0.           0.           0.           0.       
  627.00000p      0.           0.           0.           0.       
  628.00000p      0.           0.           0.           0.       
  629.00000p      0.           0.           0.           0.       
  630.00000p      0.           0.           0.           0.       
  631.00000p      0.           0.           0.           0.       
  632.00000p      0.           0.           0.           0.       
  633.00000p      0.           0.           0.           0.       
  634.00000p      0.           0.           0.           0.       
  635.00000p      0.           0.           0.           0.       
  636.00000p      0.           0.           0.           0.       
  637.00000p      0.           0.           0.           0.       
  638.00000p      0.           0.           0.           0.       
  639.00000p      0.           0.           0.           0.       
  640.00000p      0.           0.           0.           0.       
  641.00000p      0.           0.           0.           0.       
  642.00000p      0.           0.           0.           0.       
  643.00000p      0.           0.           0.           0.       
  644.00000p      0.           0.           0.           0.       
  645.00000p      0.           0.           0.           0.       
  646.00000p      0.           0.           0.           0.       
  647.00000p      0.           0.           0.           0.       
  648.00000p      0.           0.           0.           0.       
  649.00000p      0.           0.           0.           0.       
  650.00000p      0.           0.           0.           0.       
  651.00000p      0.           0.           0.           0.       
  652.00000p      0.           0.           0.           0.       
  653.00000p      0.           0.           0.           0.       
  654.00000p      0.           0.           0.           0.       
  655.00000p      0.           0.           0.           0.       
  656.00000p      0.           0.           0.           0.       
  657.00000p      0.           0.           0.           0.       
  658.00000p      0.           0.           0.           0.       
  659.00000p      0.           0.           0.           0.       
  660.00000p      0.           0.           0.           0.       
  661.00000p      0.           0.           0.           0.       
  662.00000p      0.           0.           0.           0.       
  663.00000p      0.           0.           0.           0.       
  664.00000p      0.           0.           0.           0.       
  665.00000p      0.           0.           0.           0.       
  666.00000p      0.           0.           0.           0.       
  667.00000p      0.           0.           0.           0.       
  668.00000p      0.           0.           0.           0.       
  669.00000p      0.           0.           0.           0.       
  670.00000p      0.           0.           0.           0.       
  671.00000p      0.           0.           0.           0.       
  672.00000p      0.           0.           0.           0.       
  673.00000p      0.           0.           0.           0.       
  674.00000p      0.           0.           0.           0.       
  675.00000p      0.           0.           0.           0.       
  676.00000p      0.           0.           0.           0.       
  677.00000p      0.           0.           0.           0.       
  678.00000p      0.           0.           0.           0.       
  679.00000p      0.           0.           0.           0.       
  680.00000p      0.           0.           0.           0.       
  681.00000p      0.           0.           0.           0.       
  682.00000p      0.           0.           0.           0.       
  683.00000p      0.           0.           0.           0.       
  684.00000p      0.           0.           0.           0.       
  685.00000p      0.           0.           0.           0.       
  686.00000p      0.           0.           0.           0.       
  687.00000p      0.           0.           0.           0.       
  688.00000p      0.           0.           0.           0.       
  689.00000p      0.           0.           0.           0.       
  690.00000p      0.           0.           0.           0.       
  691.00000p      0.           0.           0.           0.       
  692.00000p      0.           0.           0.           0.       
  693.00000p      0.           0.           0.           0.       
  694.00000p      0.           0.           0.           0.       
  695.00000p      0.           0.           0.           0.       
  696.00000p      0.           0.           0.           0.       
  697.00000p      0.           0.           0.           0.       
  698.00000p      0.           0.           0.           0.       
  699.00000p      0.           0.           0.           0.       
  700.00000p      0.           0.           0.           0.       
  701.00000p      0.           0.           0.           0.       
  702.00000p      0.           0.           0.           0.       
  703.00000p      0.           0.           0.           0.       
  704.00000p      0.           0.           0.           0.       
  705.00000p      0.           0.           0.           0.       
  706.00000p      0.           0.           0.           0.       
  707.00000p      0.           0.           0.           0.       
  708.00000p      0.           0.           0.           0.       
  709.00000p      0.           0.           0.           0.       
  710.00000p      0.           0.           0.           0.       
  711.00000p      0.           0.           0.           0.       
  712.00000p      0.           0.           0.           0.       
  713.00000p      0.           0.           0.           0.       
  714.00000p      0.           0.           0.           0.       
  715.00000p      0.           0.           0.           0.       
  716.00000p      0.           0.           0.           0.       
  717.00000p      0.           0.           0.           0.       
  718.00000p      0.           0.           0.           0.       
  719.00000p      0.           0.           0.           0.       
  720.00000p      0.           0.           0.           0.       
  721.00000p      0.           0.           0.           0.       
  722.00000p      0.           0.           0.           0.       
  723.00000p      0.           0.           0.           0.       
  724.00000p      0.           0.           0.           0.       
  725.00000p      0.           0.           0.           0.       
  726.00000p      0.           0.           0.           0.       
  727.00000p      0.           0.           0.           0.       
  728.00000p      0.           0.           0.           0.       
  729.00000p      0.           0.           0.           0.       
  730.00000p      0.           0.           0.           0.       
  731.00000p      0.           0.           0.           0.       
  732.00000p      0.           0.           0.           0.       
  733.00000p      0.           0.           0.           0.       
  734.00000p      0.           0.           0.           0.       
  735.00000p      0.           0.           0.           0.       
  736.00000p      0.           0.           0.           0.       
  737.00000p      0.           0.           0.           0.       
  738.00000p      0.           0.           0.           0.       
  739.00000p      0.           0.           0.           0.       
  740.00000p      0.           0.           0.           0.       
  741.00000p      0.           0.           0.           0.       
  742.00000p      0.           0.           0.           0.       
  743.00000p      0.           0.           0.           0.       
  744.00000p      0.           0.           0.           0.       
  745.00000p      0.           0.           0.           0.       
  746.00000p      0.           0.           0.           0.       
  747.00000p      0.           0.           0.           0.       
  748.00000p      0.           0.           0.           0.       
  749.00000p      0.           0.           0.           0.       
  750.00000p      0.           0.           0.           0.       
  751.00000p      0.           0.           0.           0.       
  752.00000p      0.           0.           0.           0.       
  753.00000p      0.           0.           0.           0.       
  754.00000p      0.           0.           0.           0.       
  755.00000p      0.           0.           0.           0.       
  756.00000p      0.           0.           0.           0.       
  757.00000p      0.           0.           0.           0.       
  758.00000p      0.           0.           0.           0.       
  759.00000p      0.           0.           0.           0.       
  760.00000p      0.           0.           0.           0.       
  761.00000p      0.           0.           0.           0.       
  762.00000p      0.           0.           0.           0.       
  763.00000p      0.           0.           0.           0.       
  764.00000p      0.           0.           0.           0.       
  765.00000p      0.           0.           0.           0.       
  766.00000p      0.           0.           0.           0.       
  767.00000p      0.           0.           0.           0.       
  768.00000p      0.           0.           0.           0.       
  769.00000p      0.           0.           0.           0.       
  770.00000p      0.           0.           0.           0.       
  771.00000p      0.           0.           0.           0.       
  772.00000p      0.           0.           0.           0.       
  773.00000p      0.           0.           0.           0.       
  774.00000p      0.           0.           0.           0.       
  775.00000p      0.           0.           0.           0.       
  776.00000p      0.           0.           0.           0.       
  777.00000p      0.           0.           0.           0.       
  778.00000p      0.           0.           0.           0.       
[...]
  729.00000p      0.           0.           0.           0.       
  730.00000p      0.           0.           0.           0.       
  731.00000p      0.           0.           0.           0.       
  732.00000p      0.           0.           0.           0.       
  733.00000p      0.           0.           0.           0.       
  734.00000p      0.           0.           0.           0.       
  735.00000p      0.           0.           0.           0.       
  736.00000p      0.           0.           0.           0.       
  737.00000p      0.           0.           0.           0.       
  738.00000p      0.           0.           0.           0.       
  739.00000p      0.           0.           0.           0.       
  740.00000p      0.           0.           0.           0.       
  741.00000p      0.           0.           0.           0.       
  742.00000p      0.           0.           0.           0.       
  743.00000p      0.           0.           0.           0.       
  744.00000p      0.           0.           0.           0.       
  745.00000p      0.           0.           0.           0.       
  746.00000p      0.           0.           0.           0.       
  747.00000p      0.           0.           0.           0.       
  748.00000p      0.           0.           0.           0.       
  749.00000p      0.           0.           0.           0.       
  750.00000p      0.           0.           0.           0.       
  751.00000p      0.           0.           0.           0.       
  752.00000p      0.           0.           0.           0.       
  753.00000p      0.           0.           0.           0.       
  754.00000p      0.           0.           0.           0.       
  755.00000p      0.           0.           0.           0.       
  756.00000p      0.           0.           0.           0.       
  757.00000p      0.           0.           0.           0.       
  758.00000p      0.           0.           0.           0.       
  759.00000p      0.           0.           0.           0.       
  760.00000p      0.           0.           0.           0.       
  761.00000p      0.           0.           0.           0.       
  762.00000p      0.           0.           0.           0.       
  763.00000p      0.           0.           0.           0.       
  764.00000p      0.           0.           0.           0.       
  765.00000p      0.           0.           0.           0.       
  766.00000p      0.           0.           0.           0.       
  767.00000p      0.           0.           0.           0.       
  768.00000p      0.           0.           0.           0.       
  769.00000p      0.           0.           0.           0.       
  770.00000p      0.           0.           0.           0.       
  771.00000p      0.           0.           0.           0.       
  772.00000p      0.           0.           0.           0.       
  773.00000p      0.           0.           0.           0.       
  774.00000p      0.           0.           0.           0.       
  775.00000p      0.           0.           0.           0.       
  776.00000p      0.           0.           0.           0.       
  777.00000p      0.           0.           0.           0.       
  778.00000p      0.           0.           0.           0.       
  779.00000p      0.           0.           0.           0.       
  780.00000p      0.           0.           0.           0.       
  781.00000p      0.           0.           0.           0.       
  782.00000p      0.           0.           0.           0.       
  783.00000p      0.           0.           0.           0.       
  784.00000p      0.           0.           0.           0.       
  785.00000p      0.           0.           0.           0.       
  786.00000p      0.           0.           0.           0.       
  787.00000p      0.           0.           0.           0.       
  788.00000p      0.           0.           0.           0.       
  789.00000p      0.           0.           0.           0.       
  790.00000p      0.           0.           0.           0.       
  791.00000p      0.           0.           0.           0.       
  792.00000p      0.           0.           0.           0.       
  793.00000p      0.           0.           0.           0.       
  794.00000p      0.           0.           0.           0.       
  795.00000p      0.           0.           0.           0.       
  796.00000p      0.           0.           0.           0.       
  797.00000p      0.           0.           0.           0.       
  798.00000p      0.           0.           0.           0.       
  799.00000p      0.           0.           0.           0.       
  800.00000p      0.           0.           0.           0.       
  801.00000p      0.           0.           0.           0.       
  802.00000p      0.           0.           0.           0.       
  803.00000p      0.           0.           0.           0.       
  804.00000p      0.           0.           0.           0.       
  805.00000p      0.           0.           0.           0.       
  806.00000p      0.           0.           0.           0.       
  807.00000p      0.           0.           0.           0.       
  808.00000p      0.           0.           0.           0.       
  809.00000p      0.           0.           0.           0.       
  810.00000p      0.           0.           0.           0.       
  811.00000p      0.           0.           0.           0.       
  812.00000p      0.           0.           0.           0.       
  813.00000p      0.           0.           0.           0.       
  814.00000p      0.           0.           0.           0.       
  815.00000p      0.           0.           0.           0.       
  816.00000p      0.           0.           0.           0.       
  817.00000p      0.           0.           0.           0.       
  818.00000p      0.           0.           0.           0.       
  819.00000p      0.           0.           0.           0.       
  820.00000p      0.           0.           0.           0.       
  821.00000p      0.           0.           0.           0.       
  822.00000p      0.           0.           0.           0.       
  823.00000p      0.           0.           0.           0.       
  824.00000p      0.           0.           0.           0.       
  825.00000p      0.           0.           0.           0.       
  826.00000p      0.           0.           0.           0.       
  827.00000p      0.           0.           0.           0.       
  828.00000p      0.           0.           0.           0.       
  829.00000p      0.           0.           0.           0.       
  830.00000p      0.           0.           0.           0.       
  831.00000p      0.           0.           0.           0.       
  832.00000p      0.           0.           0.           0.       
  833.00000p      0.           0.           0.           0.       
  834.00000p      0.           0.           0.           0.       
  835.00000p      0.           0.           0.           0.       
  836.00000p      0.           0.           0.           0.       
  837.00000p      0.           0.           0.           0.       
  838.00000p      0.           0.           0.           0.       
  839.00000p      0.           0.           0.           0.       
  840.00000p      0.           0.           0.           0.       
  841.00000p      0.           0.           0.           0.       
  842.00000p      0.           0.           0.           0.       
  843.00000p      0.           0.           0.           0.       
  844.00000p      0.           0.           0.           0.       
  845.00000p      0.           0.           0.           0.       
  846.00000p      0.           0.           0.           0.       
  847.00000p      0.           0.           0.           0.       
  848.00000p      0.           0.           0.           0.       
  849.00000p      0.           0.           0.           0.       
  850.00000p      0.           0.           0.           0.       
  851.00000p      0.           0.           0.           0.       
  852.00000p      0.           0.           0.           0.       
  853.00000p      0.           0.           0.           0.       
  854.00000p      0.           0.           0.           0.       
  855.00000p      0.           0.           0.           0.       
  856.00000p      0.           0.           0.           0.       
  857.00000p      0.           0.           0.           0.       
  858.00000p      0.           0.           0.           0.       
  859.00000p      0.           0.           0.           0.       
  860.00000p      0.           0.           0.           0.       
  861.00000p      0.           0.           0.           0.       
  862.00000p      0.           0.           0.           0.       
  863.00000p      0.           0.           0.           0.       
  864.00000p      0.           0.           0.           0.       
  865.00000p      0.           0.           0.           0.       
  866.00000p      0.           0.           0.           0.       
  867.00000p      0.           0.           0.           0.       
  868.00000p      0.           0.           0.           0.       
  869.00000p      0.           0.           0.           0.       
  870.00000p      0.           0.           0.           0.       
  871.00000p      0.           0.           0.           0.       
  872.00000p      0.           0.           0.           0.       
  873.00000p      0.           0.           0.           0.       
  874.00000p      0.           0.           0.           0.       
  875.00000p      0.           0.           0.           0.       
  876.00000p      0.           0.           0.           0.       
  877.00000p      0.           0.           0.           0.       
  878.00000p      0.           0.           0.           0.       
  879.00000p      0.           0.           0.           0.       
  880.00000p      0.           0.           0.           0.       
  881.00000p      0.           0.           0.           0.       
  882.00000p      0.           0.           0.           0.       
  883.00000p      0.           0.           0.           0.       
  884.00000p      0.           0.           0.           0.       
  885.00000p      0.           0.           0.           0.       
  886.00000p      0.           0.           0.           0.       
  887.00000p      0.           0.           0.           0.       
  888.00000p      0.           0.           0.           0.       
  889.00000p      0.           0.           0.           0.       
  890.00000p      0.           0.           0.           0.       
  891.00000p      0.           0.           0.           0.       
  892.00000p      0.           0.           0.           0.       
  893.00000p      0.           0.           0.           0.       
  894.00000p      0.           0.           0.           0.       
  895.00000p      0.           0.           0.           0.       
  896.00000p      0.           0.           0.           0.       
  897.00000p      0.           0.           0.           0.       
  898.00000p      0.           0.           0.           0.       
  899.00000p      0.           0.           0.           0.       
  900.00000p      0.           0.           0.           0.       
  901.00000p      0.           0.           0.           0.       
  902.00000p      0.           0.           0.           0.       
  903.00000p      0.           0.           0.           0.       
  904.00000p      0.           0.           0.           0.       
  905.00000p      0.           0.           0.           0.       
  906.00000p      0.           0.           0.           0.       
  907.00000p      0.           0.           0.           0.       
  908.00000p      0.           0.           0.           0.       
  909.00000p      0.           0.           0.           0.       
  910.00000p      0.           0.           0.           0.       
  911.00000p      0.           0.           0.           0.       
  912.00000p      0.           0.           0.           0.       
  913.00000p      0.           0.           0.           0.       
  914.00000p      0.           0.           0.           0.       
  915.00000p      0.           0.           0.           0.       
  916.00000p      0.           0.           0.           0.       
  917.00000p      0.           0.           0.           0.       
  918.00000p      0.           0.           0.           0.       
  919.00000p      0.           0.           0.           0.       
  920.00000p      0.           0.           0.           0.       
  921.00000p      0.           0.           0.           0.       
  922.00000p      0.           0.           0.           0.       
  923.00000p      0.           0.           0.           0.       
  924.00000p      0.           0.           0.           0.       
  925.00000p      0.           0.           0.           0.       
  926.00000p      0.           0.           0.           0.       
  927.00000p      0.           0.           0.           0.       
  928.00000p      0.           0.           0.           0.       
  929.00000p      0.           0.           0.           0.       
  930.00000p      0.           0.           0.           0.       
  931.00000p      0.           0.           0.           0.       
  932.00000p      0.           0.           0.           0.       
  933.00000p      0.           0.           0.           0.       
  934.00000p      0.           0.           0.           0.       
  935.00000p      0.           0.           0.           0.       
  936.00000p      0.           0.           0.           0.       
  937.00000p      0.           0.           0.           0.       
  938.00000p      0.           0.           0.           0.       
  939.00000p      0.           0.           0.           0.       
  940.00000p      0.           0.           0.           0.       
  941.00000p      0.           0.           0.           0.       
  942.00000p      0.           0.           0.           0.       
  943.00000p      0.           0.           0.           0.       
  944.00000p      0.           0.           0.           0.       
  945.00000p      0.           0.           0.           0.       
  946.00000p      0.           0.           0.           0.       
  947.00000p      0.           0.           0.           0.       
  948.00000p      0.           0.           0.           0.       
  949.00000p      0.           0.           0.           0.       
  950.00000p      0.           0.           0.           0.       
  951.00000p      0.           0.           0.           0.       
  952.00000p      0.           0.           0.           0.       
  953.00000p      0.           0.           0.           0.       
  954.00000p      0.           0.           0.           0.       
  955.00000p      0.           0.           0.           0.       
  956.00000p      0.           0.           0.           0.       
  957.00000p      0.           0.           0.           0.       
  958.00000p      0.           0.           0.           0.       
  959.00000p      0.           0.           0.           0.       
  960.00000p      0.           0.           0.           0.       
  961.00000p      0.           0.           0.           0.       
  962.00000p      0.           0.           0.           0.       
  963.00000p      0.           0.           0.           0.       
  964.00000p      0.           0.           0.           0.       
  965.00000p      0.           0.           0.           0.       
  966.00000p      0.           0.           0.           0.       
  967.00000p      0.           0.           0.           0.       
  968.00000p      0.           0.           0.           0.       
  969.00000p      0.           0.           0.           0.       
  970.00000p      0.           0.           0.           0.       
  971.00000p      0.           0.           0.           0.       
  972.00000p      0.           0.           0.           0.       
  973.00000p      0.           0.           0.           0.       
  974.00000p      0.           0.           0.           0.       
  975.00000p      0.           0.           0.           0.       
  976.00000p      0.           0.           0.           0.       
  977.00000p      0.           0.           0.           0.       
  978.00000p      0.           0.           0.           0.       
  979.00000p      0.           0.           0.           0.       
  980.00000p      0.           0.           0.           0.       
  981.00000p      0.           0.           0.           0.       
  982.00000p      0.           0.           0.           0.       
  983.00000p      0.           0.           0.           0.       
  984.00000p      0.           0.           0.           0.       
  985.00000p      0.           0.           0.           0.       
  986.00000p      0.           0.           0.           0.       
  987.00000p      0.           0.           0.           0.       
  988.00000p      0.           0.           0.           0.       
  989.00000p      0.           0.           0.           0.       
  990.00000p      0.           0.           0.           0.       
  991.00000p      0.           0.           0.           0.       
  992.00000p      0.           0.           0.           0.       
  993.00000p      0.           0.           0.           0.       
  994.00000p      0.           0.           0.           0.       
  995.00000p      0.           0.           0.           0.       
  996.00000p      0.           0.           0.           0.       
  997.00000p      0.           0.           0.           0.       
  998.00000p      0.           0.           0.           0.       
  999.00000p      0.           0.           0.           0.       
    1.00000n      0.           0.           0.           0.       
y

          ***** job concluded
1****** HSPICE -- D-2010.03-SP1 32-BIT (May 26 2010) winnt ******               
 ******  
 *a bus interconnect circuit with 34 bus line 16 segment.

  ******  job statistics summary tnom=  25.000 temp=  25.000 *****

  ******  HSPICE Threads Information  ******

  Command Line Threads Count                  :     1
  Available CPU Count                         :     8
  Actual Model Evaluation(Load) Threads Count :     1
  Actual Solver Threads Count                 :     1


  ******  Circuit Statistics  ******
  # nodes       =    1123 # elements   =   19669
  # resistors   =     579 # capacitors =    9569 # inductors   =     544
  # mutual_inds =    8976 # vccs       =       0 # vcvs        =       0
  # cccs        =       0 # ccvs       =       0 # volt_srcs   =       0
  # curr_srcs   =       1 # diodes     =       0 # bjts        =       0
  # jfets       =       0 # mosfets    =       0 # U elements  =       0
  # T elements  =       0 # W elements =       0 # B elements  =       0
  # S elements  =       0 # P elements =       0 # va device   =       0


  ******  Runtime Statistics (seconds)  ******

  analysis           time    # points   tot. iter  conv.iter
  op point           0.07           1           3
  transient          0.21        1001          48          24 rev=         0
  readin             2.61
  errchk             2.42
  setup              0.24
  output             0.05


           total memory used        10263  kbytes
           total cpu time            5.61 seconds
           total elapsed time        5.73 seconds
           job started at     12:06:05 12/09/2007
           job ended   at     12:06:10 12/09/2007


  lic: Release hspice token(s) 
