 ****** HSPICE -- D-2010.03-SP1 32-BIT (May 26 2010) winnt ******               
  Copyright (C) 2010 Synopsys, Inc. All Rights Reserved.                        
  Unpublished-rights reserved under US copyright laws.
  This program is protected by law and is subject to the 
  terms and conditions of the license agreement from Synopsys.
  Use of this program is your acceptance to be bound by the 
  license agreement. HSPICE is the trademark of Synopsys, Inc.
  Input File: d:\¿Î±¾&¿Î¼ş&ÎÄ¼ş\ÑĞ¾¿Éú¿Î³Ì\ÏÖ´ú¼¯³ÉµçÂ·Éè¼Æ·½·¨\¡¾ÏÖ´ú¼¯³ÉµçÂ··Ö
  lic:  
  lic: FLEXlm: v8.5b 
  lic: USER:   76649                HOSTNAME: LAPTOP-2ERCPRJ5 
  lic: HOSTID: "98fa9b317f23 00ff1a4c8a6d 005056c00001 005056c00008 00ff066784e8
  
  lic: Using FLEXlm license file: 
  lic: C:\flexlm\hspice.dat 
  lic: Checkout 1 hspice 
  lic: License/Maintenance for hspice will expire on 31-dec-2020/2007.9 
  lic: NODE LOCKED license on hostid "98fa9b317f23 00ff1a4c8a6d 005056c00001 005
 0
  lic:   
 Init: read install configuration file: C:\synopsys\Hspice_D-2010.03-SP1\meta.cfg
1****** HSPICE -- D-2010.03-SP1 32-BIT (May 26 2010) winnt ******               
 ******  
 *a bus interconnect circuit with 34 bus line 16 segment.

  ******  circuit name directory
 circuit number to circuit name directory
   number circuitname                     definition         multiplier
        0 main circuit
        1 x1.                             intercon           1.00 
  **info** (d:\¿Î±¾&¿Î¼ş&ÎÄ¼ş\ÑĞ¾¿Éú¿Î³Ì\ÏÖ´ú¼¯³ÉµçÂ·Éè¼Æ·½·¨\¡¾ÏÖ´ú¼¯³ÉµçÂ··ÖÎö¡¿×÷Òµ×ÊÁÏ\project3-5\benchmark\bus32seg16_sin.sp:36) DC voltage reset to initial transient source value              in source        0:iin1                new dc=  0.0000D+00
 
      
 *****************************************************************
 ******  option summary
 ******
 runlvl  = 3         bypass  = 2         
  Opening plot unit= 79
 file=d:\¿Î±¾&¿Î¼ş&ÎÄ¼ş\ÑĞ¾¿Éú¿Î³Ì\ÏÖ´ú¼¯³ÉµçÂ·Éè¼Æ·½·¨\¡¾ÏÖ´ú¼¯³ÉµçÂ··ÖÎö¡¿×÷Ò

1****** HSPICE -- D-2010.03-SP1 32-BIT (May 26 2010) winnt ******               
 ******  
 *a bus interconnect circuit with 34 bus line 16 segment.

  ******  operating point information tnom=  25.000 temp=  25.000 *****
 ***** operating point status is voltage   simulation time is     0.     
    node    =voltage      node    =voltage      node    =voltage

 +0:tdn10a1 =   0.      0:tdn10a9 =   0.      0:tdn11a1 =   0.     
 +0:tdn11a9 =   0.      0:tdn12a1 =   0.      0:tdn12a9 =   0.     
 +0:tdn13a1 =   0.      0:tdn13a9 =   0.      0:tdn14a1 =   0.     
 +0:tdn14a9 =   0.      0:tdn15a1 =   0.      0:tdn15a9 =   0.     
 +0:tdn16a1 =   0.      0:tdn16a9 =   0.      0:tdn17a1 =   0.     
 +0:tdn17a9 =   0.      0:tdn18a1 =   0.      0:tdn18a9 =   0.     
 +0:tdn19a1 =   0.      0:tdn19a9 =   0.      0:tdn1a1  =   0.     
 +0:tdn1a9  =   0.      0:tdn20a1 =   0.      0:tdn20a9 =   0.     
 +0:tdn21a1 =   0.      0:tdn21a9 =   0.      0:tdn22a1 =   0.     
 +0:tdn22a9 =   0.      0:tdn23a1 =   0.      0:tdn23a9 =   0.     
 +0:tdn24a1 =   0.      0:tdn24a9 =   0.      0:tdn25a1 =   0.     
 +0:tdn25a9 =   0.      0:tdn26a1 =   0.      0:tdn26a9 =   0.     
 +0:tdn27a1 =   0.      0:tdn27a9 =   0.      0:tdn28a1 =   0.     
 +0:tdn28a9 =   0.      0:tdn29a1 =   0.      0:tdn29a9 =   0.     
 +0:tdn2a1  =   0.      0:tdn2a9  =   0.      0:tdn30a1 =   0.     
 +0:tdn30a9 =   0.      0:tdn31a1 =   0.      0:tdn31a9 =   0.     
 +0:tdn32a1 =   0.      0:tdn32a9 =   0.      0:tdn3a1  =   0.     
 +0:tdn3a9  =   0.      0:tdn4a1  =   0.      0:tdn4a9  =   0.     
 +0:tdn5a1  =   0.      0:tdn5a9  =   0.      0:tdn6a1  =   0.     
 +0:tdn6a9  =   0.      0:tdn7a1  =   0.      0:tdn7a9  =   0.     
 +0:tdn8a1  =   0.      0:tdn8a9  =   0.      0:tdn9a1  =   0.     
 +0:tdn9a9  =   0.      0:tdnga1  =   0.      0:tdnga9  =   0.     
 +0:tdnva1  =   0.      0:tdnva9  =   0.      1:tdn10a10=   0.     
 +1:tdn10a11=   0.      1:tdn10a12=   0.      1:tdn10a13=   0.     
 +1:tdn10a14=   0.      1:tdn10a15=   0.      1:tdn10a16=   0.     
 +1:tdn10a17=   0.      1:tdn10a18=   0.      1:tdn10a19=   0.     
 +1:tdn10a2 =   0.      1:tdn10a20=   0.      1:tdn10a21=   0.     
 +1:tdn10a22=   0.      1:tdn10a23=   0.      1:tdn10a24=   0.     
 +1:tdn10a25=   0.      1:tdn10a26=   0.      1:tdn10a27=   0.     
 +1:tdn10a28=   0.      1:tdn10a29=   0.      1:tdn10a3 =   0.     
 +1:tdn10a30=   0.      1:tdn10a31=   0.      1:tdn10a32=   0.     
 +1:tdn10a4 =   0.      1:tdn10a5 =   0.      1:tdn10a6 =   0.     
 +1:tdn10a7 =   0.      1:tdn10a8 =   0.      1:tdn10a9 =   0.     
 +1:tdn11a10=   0.      1:tdn11a11=   0.      1:tdn11a12=   0.     
 +1:tdn11a13=   0.      1:tdn11a14=   0.      1:tdn11a15=   0.     
 +1:tdn11a16=   0.      1:tdn11a17=   0.      1:tdn11a18=   0.     
 +1:tdn11a19=   0.      1:tdn11a2 =   0.      1:tdn11a20=   0.     
 +1:tdn11a21=   0.      1:tdn11a22=   0.      1:tdn11a23=   0.     
 +1:tdn11a24=   0.      1:tdn11a25=   0.      1:tdn11a26=   0.     
 +1:tdn11a27=   0.      1:tdn11a28=   0.      1:tdn11a29=   0.     
 +1:tdn11a3 =   0.      1:tdn11a30=   0.      1:tdn11a31=   0.     
 +1:tdn11a32=   0.      1:tdn11a4 =   0.      1:tdn11a5 =   0.     
 +1:tdn11a6 =   0.      1:tdn11a7 =   0.      1:tdn11a8 =   0.     
 +1:tdn11a9 =   0.      1:tdn12a10=   0.      1:tdn12a11=   0.     
 +1:tdn12a12=   0.      1:tdn12a13=   0.      1:tdn12a14=   0.     
 +1:tdn12a15=   0.      1:tdn12a16=   0.      1:tdn12a17=   0.     
 +1:tdn12a18=   0.      1:tdn12a19=   0.      1:tdn12a2 =   0.     
 +1:tdn12a20=   0.      1:tdn12a21=   0.      1:tdn12a22=   0.     
 +1:tdn12a23=   0.      1:tdn12a24=   0.      1:tdn12a25=   0.     
 +1:tdn12a26=   0.      1:tdn12a27=   0.      1:tdn12a28=   0.     
 +1:tdn12a29=   0.      1:tdn12a3 =   0.      1:tdn12a30=   0.     
 +1:tdn12a31=   0.      1:tdn12a32=   0.      1:tdn12a4 =   0.     
 +1:tdn12a5 =   0.      1:tdn12a6 =   0.      1:tdn12a7 =   0.     
 +1:tdn12a8 =   0.      1:tdn12a9 =   0.      1:tdn13a10=   0.     
 +1:tdn13a11=   0.      1:tdn13a12=   0.      1:tdn13a13=   0.     
 +1:tdn13a14=   0.      1:tdn13a15=   0.      1:tdn13a16=   0.     
 +1:tdn13a17=   0.      1:tdn13a18=   0.      1:tdn13a19=   0.     
 +1:tdn13a2 =   0.      1:tdn13a20=   0.      1:tdn13a21=   0.     
 +1:tdn13a22=   0.      1:tdn13a23=   0.      1:tdn13a24=   0.     
 +1:tdn13a25=   0.      1:tdn13a26=   0.      1:tdn13a27=   0.     
 +1:tdn13a28=   0.      1:tdn13a29=   0.      1:tdn13a3 =   0.     
 +1:tdn13a30=   0.      1:tdn13a31=   0.      1:tdn13a32=   0.     
 +1:tdn13a4 =   0.      1:tdn13a5 =   0.      1:tdn13a6 =   0.     
 +1:tdn13a7 =   0.      1:tdn13a8 =   0.      1:tdn13a9 =   0.     
 +1:tdn14a10=   0.      1:tdn14a11=   0.      1:tdn14a12=   0.     
 +1:tdn14a13=   0.      1:tdn14a14=   0.      1:tdn14a15=   0.     
 +1:tdn14a16=   0.      1:tdn14a17=   0.      1:tdn14a18=   0.     
 +1:tdn14a19=   0.      1:tdn14a2 =   0.      1:tdn14a20=   0.     
 +1:tdn14a21=   0.      1:tdn14a22=   0.      1:tdn14a23=   0.     
 +1:tdn14a24=   0.      1:tdn14a25=   0.      1:tdn14a26=   0.     
 +1:tdn14a27=   0.      1:tdn14a28=   0.      1:tdn14a29=   0.     
 +1:tdn14a3 =   0.      1:tdn14a30=   0.      1:tdn14a31=   0.     
 +1:tdn14a32=   0.      1:tdn14a4 =   0.      1:tdn14a5 =   0.     
 +1:tdn14a6 =   0.      1:tdn14a7 =   0.      1:tdn14a8 =   0.     
 +1:tdn14a9 =   0.      1:tdn15a10=   0.      1:tdn15a11=   0.     
 +1:tdn15a12=   0.      1:tdn15a13=   0.      1:tdn15a14=   0.     
 +1:tdn15a15=   0.      1:tdn15a16=   0.      1:tdn15a17=   0.     
 +1:tdn15a18=   0.      1:tdn15a19=   0.      1:tdn15a2 =   0.     
 +1:tdn15a20=   0.      1:tdn15a21=   0.      1:tdn15a22=   0.     
 +1:tdn15a23=   0.      1:tdn15a24=   0.      1:tdn15a25=   0.     
 +1:tdn15a26=   0.      1:tdn15a27=   0.      1:tdn15a28=   0.     
 +1:tdn15a29=   0.      1:tdn15a3 =   0.      1:tdn15a30=   0.     
 +1:tdn15a31=   0.      1:tdn15a32=   0.      1:tdn15a4 =   0.     
 +1:tdn15a5 =   0.      1:tdn15a6 =   0.      1:tdn15a7 =   0.     
 +1:tdn15a8 =   0.      1:tdn15a9 =   0.      1:tdn16a10=   0.     
 +1:tdn16a11=   0.      1:tdn16a12=   0.      1:tdn16a13=   0.     
 +1:tdn16a14=   0.      1:tdn16a15=   0.      1:tdn16a16=   0.     
 +1:tdn16a17=   0.      1:tdn16a18=   0.      1:tdn16a19=   0.     
 +1:tdn16a2 =   0.      1:tdn16a20=   0.      1:tdn16a21=   0.     
 +1:tdn16a22=   0.      1:tdn16a23=   0.      1:tdn16a24=   0.     
 +1:tdn16a25=   0.      1:tdn16a26=   0.      1:tdn16a27=   0.     
 +1:tdn16a28=   0.      1:tdn16a29=   0.      1:tdn16a3 =   0.     
 +1:tdn16a30=   0.      1:tdn16a31=   0.      1:tdn16a32=   0.     
 +1:tdn16a4 =   0.      1:tdn16a5 =   0.      1:tdn16a6 =   0.     
 +1:tdn16a7 =   0.      1:tdn16a8 =   0.      1:tdn16a9 =   0.     
 +1:tdn17a10=   0.      1:tdn17a11=   0.      1:tdn17a12=   0.     
 +1:tdn17a13=   0.      1:tdn17a14=   0.      1:tdn17a15=   0.     
 +1:tdn17a16=   0.      1:tdn17a17=   0.      1:tdn17a18=   0.     
 +1:tdn17a19=   0.      1:tdn17a2 =   0.      1:tdn17a20=   0.     
 +1:tdn17a21=   0.      1:tdn17a22=   0.      1:tdn17a23=   0.     
 +1:tdn17a24=   0.      1:tdn17a25=   0.      1:tdn17a26=   0.     
 +1:tdn17a27=   0.      1:tdn17a28=   0.      1:tdn17a29=   0.     
 +1:tdn17a3 =   0.      1:tdn17a30=   0.      1:tdn17a31=   0.     
 +1:tdn17a32=   0.      1:tdn17a4 =   0.      1:tdn17a5 =   0.     
 +1:tdn17a6 =   0.      1:tdn17a7 =   0.      1:tdn17a8 =   0.     
 +1:tdn17a9 =   0.      1:tdn18a10=   0.      1:tdn18a11=   0.     
 +1:tdn18a12=   0.      1:tdn18a13=   0.      1:tdn18a14=   0.     
 +1:tdn18a15=   0.      1:tdn18a16=   0.      1:tdn18a17=   0.     
 +1:tdn18a18=   0.      1:tdn18a19=   0.      1:tdn18a2 =   0.     
 +1:tdn18a20=   0.      1:tdn18a21=   0.      1:tdn18a22=   0.     
 +1:tdn18a23=   0.      1:tdn18a24=   0.      1:tdn18a25=   0.     
 +1:tdn18a26=   0.      1:tdn18a27=   0.      1:tdn18a28=   0.     
 +1:tdn18a29=   0.      1:tdn18a3 =   0.      1:tdn18a30=   0.     
 +1:tdn18a31=   0.      1:tdn18a32=   0.      1:tdn18a4 =   0.     
 +1:tdn18a5 =   0.      1:tdn18a6 =   0.      1:tdn18a7 =   0.     
 +1:tdn18a8 =   0.      1:tdn18a9 =   0.      1:tdn19a10=   0.     
 +1:tdn19a11=   0.      1:tdn19a12=   0.      1:tdn19a13=   0.     
 +1:tdn19a14=   0.      1:tdn19a15=   0.      1:tdn19a16=   0.     
 +1:tdn19a17=   0.      1:tdn19a18=   0.      1:tdn19a19=   0.     
 +1:tdn19a2 =   0.      1:tdn19a20=   0.      1:tdn19a21=   0.     
 +1:tdn19a22=   0.      1:tdn19a23=   0.      1:tdn19a24=   0.     
 +1:tdn19a25=   0.      1:tdn19a26=   0.      1:tdn19a27=   0.     
 +1:tdn19a28=   0.      1:tdn19a29=   0.      1:tdn19a3 =   0.     
 +1:tdn19a30=   0.      1:tdn19a31=   0.      1:tdn19a32=   0.     
 +1:tdn19a4 =   0.      1:tdn19a5 =   0.      1:tdn19a6 =   0.     
 +1:tdn19a7 =   0.      1:tdn19a8 =   0.      1:tdn19a9 =   0.     
 +1:tdn1a10 =   0.      1:tdn1a11 =   0.      1:tdn1a12 =   0.     
 +1:tdn1a13 =   0.      1:tdn1a14 =   0.      1:tdn1a15 =   0.     
 +1:tdn1a16 =   0.      1:tdn1a17 =   0.      1:tdn1a18 =   0.     
 +1:tdn1a19 =   0.      1:tdn1a2  =   0.      1:tdn1a20 =   0.     
 +1:tdn1a21 =   0.      1:tdn1a22 =   0.      1:tdn1a23 =   0.     
 +1:tdn1a24 =   0.      1:tdn1a25 =   0.      1:tdn1a26 =   0.     
 +1:tdn1a27 =   0.      1:tdn1a28 =   0.      1:tdn1a29 =   0.     
 +1:tdn1a3  =   0.      1:tdn1a30 =   0.      1:tdn1a31 =   0.     
 +1:tdn1a32 =   0.      1:tdn1a4  =   0.      1:tdn1a5  =   0.     
 +1:tdn1a6  =   0.      1:tdn1a7  =   0.      1:tdn1a8  =   0.     
 +1:tdn1a9  =   0.      1:tdn20a10=   0.      1:tdn20a11=   0.     
 +1:tdn20a12=   0.      1:tdn20a13=   0.      1:tdn20a14=   0.     
 +1:tdn20a15=   0.      1:tdn20a16=   0.      1:tdn20a17=   0.     
 +1:tdn20a18=   0.      1:tdn20a19=   0.      1:tdn20a2 =   0.     
 +1:tdn20a20=   0.      1:tdn20a21=   0.      1:tdn20a22=   0.     
 +1:tdn20a23=   0.      1:tdn20a24=   0.      1:tdn20a25=   0.     
 +1:tdn20a26=   0.      1:tdn20a27=   0.      1:tdn20a28=   0.     
 +1:tdn20a29=   0.      1:tdn20a3 =   0.      1:tdn20a30=   0.     
 +1:tdn20a31=   0.      1:tdn20a32=   0.      1:tdn20a4 =   0.     
 +1:tdn20a5 =   0.      1:tdn20a6 =   0.      1:tdn20a7 =   0.     
 +1:tdn20a8 =   0.      1:tdn20a9 =   0.      1:tdn21a10=   0.     
 +1:tdn21a11=   0.      1:tdn21a12=   0.      1:tdn21a13=   0.     
 +1:tdn21a14=   0.      1:tdn21a15=   0.      1:tdn21a16=   0.     
 +1:tdn21a17=   0.      1:tdn21a18=   0.      1:tdn21a19=   0.     
 +1:tdn21a2 =   0.      1:tdn21a20=   0.      1:tdn21a21=   0.     
 +1:tdn21a22=   0.      1:tdn21a23=   0.      1:tdn21a24=   0.     
 +1:tdn21a25=   0.      1:tdn21a26=   0.      1:tdn21a27=   0.     
 +1:tdn21a28=   0.      1:tdn21a29=   0.      1:tdn21a3 =   0.     
 +1:tdn21a30=   0.      1:tdn21a31=   0.      1:tdn21a32=   0.     
 +1:tdn21a4 =   0.      1:tdn21a5 =   0.      1:tdn21a6 =   0.     
 +1:tdn21a7 =   0.      1:tdn21a8 =   0.      1:tdn21a9 =   0.     
 +1:tdn22a10=   0.      1:tdn22a11=   0.      1:tdn22a12=   0.     
 +1:tdn22a13=   0.      1:tdn22a14=   0.      1:tdn22a15=   0.     
 +1:tdn22a16=   0.      1:tdn22a17=   0.      1:tdn22a18=   0.     
 +1:tdn22a19=   0.      1:tdn22a2 =   0.      1:tdn22a20=   0.     
 +1:tdn22a21=   0.      1:tdn22a22=   0.      1:tdn22a23=   0.     
 +1:tdn22a24=   0.      1:tdn22a25=   0.      1:tdn22a26=   0.     
 +1:tdn22a27=   0.      1:tdn22a28=   0.      1:tdn22a29=   0.     
 +1:tdn22a3 =   0.      1:tdn22a30=   0.      1:tdn22a31=   0.     
 +1:tdn22a32=   0.      1:tdn22a4 =   0.      1:tdn22a5 =   0.     
 +1:tdn22a6 =   0.      1:tdn22a7 =   0.      1:tdn22a8 =   0.     
 +1:tdn22a9 =   0.      1:tdn23a10=   0.      1:tdn23a11=   0.     
 +1:tdn23a12=   0.      1:tdn23a13=   0.      1:tdn23a14=   0.     
 +1:tdn23a15=   0.      1:tdn23a16=   0.      1:tdn23a17=   0.     
 +1:tdn23a18=   0.      1:tdn23a19=   0.      1:tdn23a2 =   0.     
 +1:tdn23a20=   0.      1:tdn23a21=   0.      1:tdn23a22=   0.     
 +1:tdn23a23=   0.      1:tdn23a24=   0.      1:tdn23a25=   0.     
 +1:tdn23a26=   0.      1:tdn23a27=   0.      1:tdn23a28=   0.     
 +1:tdn23a29=   0.      1:tdn23a3 =   0.      1:tdn23a30=   0.     
 +1:tdn23a31=   0.      1:tdn23a32=   0.      1:tdn23a4 =   0.     
 +1:tdn23a5 =   0.      1:tdn23a6 =   0.      1:tdn23a7 =   0.     
 +1:tdn23a8 =   0.      1:tdn23a9 =   0.      1:tdn24a10=   0.     
 +1:tdn24a11=   0.      1:tdn24a12=   0.      1:tdn24a13=   0.     
 +1:tdn24a14=   0.      1:tdn24a15=   0.      1:tdn24a16=   0.     
 +1:tdn24a17=   0.      1:tdn24a18=   0.      1:tdn24a19=   0.     
 +1:tdn24a2 =   0.      1:tdn24a20=   0.      1:tdn24a21=   0.     
 +1:tdn24a22=   0.      1:tdn24a23=   0.      1:tdn24a24=   0.     
 +1:tdn24a25=   0.      1:tdn24a26=   0.      1:tdn24a27=   0.     
 +1:tdn24a28=   0.      1:tdn24a29=   0.      1:tdn24a3 =   0.     
 +1:tdn24a30=   0.      1:tdn24a31=   0.      1:tdn24a32=   0.     
 +1:tdn24a4 =   0.      1:tdn24a5 =   0.      1:tdn24a6 =   0.     
 +1:tdn24a7 =   0.      1:tdn24a8 =   0.      1:tdn24a9 =   0.     
 +1:tdn25a10=   0.      1:tdn25a11=   0.      1:tdn25a12=   0.     
 +1:tdn25a13=   0.      1:tdn25a14=   0.      1:tdn25a15=   0.     
 +1:tdn25a16=   0.      1:tdn25a17=   0.      1:tdn25a18=   0.     
 +1:tdn25a19=   0.      1:tdn25a2 =   0.      1:tdn25a20=   0.     
 +1:tdn25a21=   0.      1:tdn25a22=   0.      1:tdn25a23=   0.     
 +1:tdn25a24=   0.      1:tdn25a25=   0.      1:tdn25a26=   0.     
 +1:tdn25a27=   0.      1:tdn25a28=   0.      1:tdn25a29=   0.     
 +1:tdn25a3 =   0.      1:tdn25a30=   0.      1:tdn25a31=   0.     
 +1:tdn25a32=   0.      1:tdn25a4 =   0.      1:tdn25a5 =   0.     
 +1:tdn25a6 =   0.      1:tdn25a7 =   0.      1:tdn25a8 =   0.     
 +1:tdn25a9 =   0.      1:tdn26a10=   0.      1:tdn26a11=   0.     
 +1:tdn26a12=   0.      1:tdn26a13=   0.      1:tdn26a14=   0.     
 +1:tdn26a15=   0.      1:tdn26a16=   0.      1:tdn26a17=   0.     
 +1:tdn26a18=   0.      1:tdn26a19=   0.      1:tdn26a2 =   0.     
 +1:tdn26a20=   0.      1:tdn26a21=   0.      1:tdn26a22=   0.     
 +1:tdn26a23=   0.      1:tdn26a24=   0.      1:tdn26a25=   0.     
 +1:tdn26a26=   0.      1:tdn26a27=   0.      1:tdn26a28=   0.     
 +1:tdn26a29=   0.      1:tdn26a3 =   0.      1:tdn26a30=   0.     
 +1:tdn26a31=   0.      1:tdn26a32=   0.      1:tdn26a4 =   0.     
 +1:tdn26a5 =   0.      1:tdn26a6 =   0.      1:tdn26a7 =   0.     
 +1:tdn26a8 =   0.      1:tdn26a9 =   0.      1:tdn27a10=   0.     
 +1:tdn27a11=   0.      1:tdn27a12=   0.      1:tdn27a13=   0.     
 +1:tdn27a14=   0.      1:tdn27a15=   0.      1:tdn27a16=   0.     
 +1:tdn27a17=   0.      1:tdn27a18=   0.      1:tdn27a19=   0.     
 +1:tdn27a2 =   0.      1:tdn27a20=   0.      1:tdn27a21=   0.     
 +1:tdn27a22=   0.      1:tdn27a23=   0.      1:tdn27a24=   0.     
 +1:tdn27a25=   0.      1:tdn27a26=   0.      1:tdn27a27=   0.     
 +1:tdn27a28=   0.      1:tdn27a29=   0.      1:tdn27a3 =   0.     
 +1:tdn27a30=   0.      1:tdn27a31=   0.      1:tdn27a32=   0.     
 +1:tdn27a4 =   0.      1:tdn27a5 =   0.      1:tdn27a6 =   0.     
 +1:tdn27a7 =   0.      1:tdn27a8 =   0.      1:tdn27a9 =   0.     
 +1:tdn28a10=   0.      1:tdn28a11=   0.      1:tdn28a12=   0.     
 +1:tdn28a13=   0.      1:tdn28a14=   0.      1:tdn28a15=   0.     
 +1:tdn28a16=   0.      1:tdn28a17=   0.      1:tdn28a18=   0.     
 +1:tdn28a19=   0.      1:tdn28a2 =   0.      1:tdn28a20=   0.     
 +1:tdn28a21=   0.      1:tdn28a22=   0.      1:tdn28a23=   0.     
 +1:tdn28a24=   0.      1:tdn28a25=   0.      1:tdn28a26=   0.     
 +1:tdn28a27=   0.      1:tdn28a28=   0.      1:tdn28a29=   0.     
 +1:tdn28a3 =   0.      1:tdn28a30=   0.      1:tdn28a31=   0.     
 +1:tdn28a32=   0.      1:tdn28a4 =   0.      1:tdn28a5 =   0.     
 +1:tdn28a6 =   0.      1:tdn28a7 =   0.      1:tdn28a8 =   0.     
 +1:tdn28a9 =   0.      1:tdn29a10=   0.      1:tdn29a11=   0.     
 +1:tdn29a12=   0.      1:tdn29a13=   0.      1:tdn29a14=   0.     
 +1:tdn29a15=   0.      1:tdn29a16=   0.      1:tdn29a17=   0.     
 +1:tdn29a18=   0.      1:tdn29a19=   0.      1:tdn29a2 =   0.     
 +1:tdn29a20=   0.      1:tdn29a21=   0.      1:tdn29a22=   0.     
 +1:tdn29a23=   0.      1:tdn29a24=   0.      1:tdn29a25=   0.     
 +1:tdn29a26=   0.      1:tdn29a27=   0.      1:tdn29a28=   0.     
 +1:tdn29a29=   0.      1:tdn29a3 =   0.      1:tdn29a30=   0.     
 +1:tdn29a31=   0.      1:tdn29a32=   0.      1:tdn29a4 =   0.     
 +1:tdn29a5 =   0.      1:tdn29a6 =   0.      1:tdn29a7 =   0.     
 +1:tdn29a8 =   0.      1:tdn29a9 =   0.      1:tdn2a10 =   0.     
 +1:tdn2a11 =   0.      1:tdn2a12 =   0.      1:tdn2a13 =   0.     
 +1:tdn2a14 =   0.      1:tdn2a15 =   0.      1:tdn2a16 =   0.     
 +1:tdn2a17 =   0.      1:tdn2a18 =   0.      1:tdn2a19 =   0.     
 +1:tdn2a2  =   0.      1:tdn2a20 =   0.      1:tdn2a21 =   0.     
 +1:tdn2a22 =   0.      1:tdn2a23 =   0.      1:tdn2a24 =   0.     
 +1:tdn2a25 =   0.      1:tdn2a26 =   0.      1:tdn2a27 =   0.     
 +1:tdn2a28 =   0.      1:tdn2a29 =   0.      1:tdn2a3  =   0.     
 +1:tdn2a30 =   0.      1:tdn2a31 =   0.      1:tdn2a32 =   0.     
 +1:tdn2a4  =   0.      1:tdn2a5  =   0.      1:tdn2a6  =   0.     
 +1:tdn2a7  =   0.      1:tdn2a8  =   0.      1:tdn2a9  =   0.     
 +1:tdn30a10=   0.      1:tdn30a11=   0.      1:tdn30a12=   0.     
 +1:tdn30a13=   0.      1:tdn30a14=   0.      1:tdn30a15=   0.     
 +1:tdn30a16=   0.      1:tdn30a17=   0.      1:tdn30a18=   0.     
 +1:tdn30a19=   0.      1:tdn30a2 =   0.      1:tdn30a20=   0.     
 +1:tdn30a21=   0.      1:tdn30a22=   0.      1:tdn30a23=   0.     
 +1:tdn30a24=   0.      1:tdn30a25=   0.      1:tdn30a26=   0.     
 +1:tdn30a27=   0.      1:tdn30a28=   0.      1:tdn30a29=   0.     
 +1:tdn30a3 =   0.      1:tdn30a30=   0.      1:tdn30a31=   0.     
 +1:tdn30a32=   0.      1:tdn30a4 =   0.      1:tdn30a5 =   0.     
 +1:tdn30a6 =   0.      1:tdn30a7 =   0.      1:tdn30a8 =   0.     
 +1:tdn30a9 =   0.      1:tdn31a10=   0.      1:tdn31a11=   0.     
 +1:tdn31a12=   0.      1:tdn31a13=   0.      1:tdn31a14=   0.     
 +1:tdn31a15=   0.      1:tdn31a16=   0.      1:tdn31a17=   0.     
 +1:tdn31a18=   0.      1:tdn31a19=   0.      1:tdn31a2 =   0.     
 +1:tdn31a20=   0.      1:tdn31a21=   0.      1:tdn31a22=   0.     
 +1:tdn31a23=   0.      1:tdn31a24=   0.      1:tdn31a25=   0.     
 +1:tdn31a26=   0.      1:tdn31a27=   0.      1:tdn31a28=   0.     
 +1:tdn31a29=   0.      1:tdn31a3 =   0.      1:tdn31a30=   0.     
 +1:tdn31a31=   0.      1:tdn31a32=   0.      1:tdn31a4 =   0.     
 +1:tdn31a5 =   0.      1:tdn31a6 =   0.      1:tdn31a7 =   0.     
 +1:tdn31a8 =   0.      1:tdn31a9 =   0.      1:tdn32a10=   0.     
 +1:tdn32a11=   0.      1:tdn32a12=   0.      1:tdn32a13=   0.     
 +1:tdn32a14=   0.      1:tdn32a15=   0.      1:tdn32a16=   0.     
 +1:tdn32a17=   0.      1:tdn32a18=   0.      1:tdn32a19=   0.     
 +1:tdn32a2 =   0.      1:tdn32a20=   0.      1:tdn32a21=   0.     
 +1:tdn32a22=   0.      1:tdn32a23=   0.      1:tdn32a24=   0.     
 +1:tdn32a25=   0.      1:tdn32a26=   0.      1:tdn32a27=   0.     
 +1:tdn32a28=   0.      1:tdn32a29=   0.      1:tdn32a3 =   0.     
 +1:tdn32a30=   0.      1:tdn32a31=   0.      1:tdn32a32=   0.     
 +1:tdn32a4 =   0.      1:tdn32a5 =   0.      1:tdn32a6 =   0.     
 +1:tdn32a7 =   0.      1:tdn32a8 =   0.      1:tdn32a9 =   0.     
 +1:tdn3a10 =   0.      1:tdn3a11 =   0.      1:tdn3a12 =   0.     
 +1:tdn3a13 =   0.      1:tdn3a14 =   0.      1:tdn3a15 =   0.     
 +1:tdn3a16 =   0.      1:tdn3a17 =   0.      1:tdn3a18 =   0.     
 +1:tdn3a19 =   0.      1:tdn3a2  =   0.      1:tdn3a20 =   0.     
 +1:tdn3a21 =   0.      1:tdn3a22 =   0.      1:tdn3a23 =   0.     
 +1:tdn3a24 =   0.      1:tdn3a25 =   0.      1:tdn3a26 =   0.     
 +1:tdn3a27 =   0.      1:tdn3a28 =   0.      1:tdn3a29 =   0.     
 +1:tdn3a3  =   0.      1:tdn3a30 =   0.      1:tdn3a31 =   0.     
 +1:tdn3a32 =   0.      1:tdn3a4  =   0.      1:tdn3a5  =   0.     
 +1:tdn3a6  =   0.      1:tdn3a7  =   0.      1:tdn3a8  =   0.     
 +1:tdn3a9  =   0.      1:tdn4a10 =   0.      1:tdn4a11 =   0.     
 +1:tdn4a12 =   0.      1:tdn4a13 =   0.      1:tdn4a14 =   0.     
 +1:tdn4a15 =   0.      1:tdn4a16 =   0.      1:tdn4a17 =   0.     
 +1:tdn4a18 =   0.      1:tdn4a19 =   0.      1:tdn4a2  =   0.     
 +1:tdn4a20 =   0.      1:tdn4a21 =   0.      1:tdn4a22 =   0.     
 +1:tdn4a23 =   0.      1:tdn4a24 =   0.      1:tdn4a25 =   0.     
 +1:tdn4a26 =   0.      1:tdn4a27 =   0.      1:tdn4a28 =   0.     
 +1:tdn4a29 =   0.      1:tdn4a3  =   0.      1:tdn4a30 =   0.     
 +1:tdn4a31 =   0.      1:tdn4a32 =   0.      1:tdn4a4  =   0.     
 +1:tdn4a5  =   0.      1:tdn4a6  =   0.      1:tdn4a7  =   0.     
 +1:tdn4a8  =   0.      1:tdn4a9  =   0.      1:tdn5a10 =   0.     
 +1:tdn5a11 =   0.      1:tdn5a12 =   0.      1:tdn5a13 =   0.     
 +1:tdn5a14 =   0.      1:tdn5a15 =   0.      1:tdn5a16 =   0.     
 +1:tdn5a17 =   0.      1:tdn5a18 =   0.      1:tdn5a19 =   0.     
 +1:tdn5a2  =   0.      1:tdn5a20 =   0.      1:tdn5a21 =   0.     
 +1:tdn5a22 =   0.      1:tdn5a23 =   0.      1:tdn5a24 =   0.     
 +1:tdn5a25 =   0.      1:tdn5a26 =   0.      1:tdn5a27 =   0.     
 +1:tdn5a28 =   0.      1:tdn5a29 =   0.      1:tdn5a3  =   0.     
 +1:tdn5a30 =   0.      1:tdn5a31 =   0.      1:tdn5a32 =   0.     
 +1:tdn5a4  =   0.      1:tdn5a5  =   0.      1:tdn5a6  =   0.     
 +1:tdn5a7  =   0.      1:tdn5a8  =   0.      1:tdn5a9  =   0.     
 +1:tdn6a10 =   0.      1:tdn6a11 =   0.      1:tdn6a12 =   0.     
 +1:tdn6a13 =   0.      1:tdn6a14 =   0.      1:tdn6a15 =   0.     
 +1:tdn6a16 =   0.      1:tdn6a17 =   0.      1:tdn6a18 =   0.     
 +1:tdn6a19 =   0.      1:tdn6a2  =   0.      1:tdn6a20 =   0.     
 +1:tdn6a21 =   0.      1:tdn6a22 =   0.      1:tdn6a23 =   0.     
 +1:tdn6a24 =   0.      1:tdn6a25 =   0.      1:tdn6a26 =   0.     
 +1:tdn6a27 =   0.      1:tdn6a28 =   0.      1:tdn6a29 =   0.     
 +1:tdn6a3  =   0.      1:tdn6a30 =   0.      1:tdn6a31 =   0.     
 +1:tdn6a32 =   0.      1:tdn6a4  =   0.      1:tdn6a5  =   0.     
 +1:tdn6a6  =   0.      1:tdn6a7  =   0.      1:tdn6a8  =   0.     
 +1:tdn6a9  =   0.      1:tdn7a10 =   0.      1:tdn7a11 =   0.     
 +1:tdn7a12 =   0.      1:tdn7a13 =   0.      1:tdn7a14 =   0.     
 +1:tdn7a15 =   0.      1:tdn7a16 =   0.      1:tdn7a17 =   0.     
 +1:tdn7a18 =   0.      1:tdn7a19 =   0.      1:tdn7a2  =   0.     
 +1:tdn7a20 =   0.      1:tdn7a21 =   0.      1:tdn7a22 =   0.     
 +1:tdn7a23 =   0.      1:tdn7a24 =   0.      1:tdn7a25 =   0.     
 +1:tdn7a26 =   0.      1:tdn7a27 =   0.      1:tdn7a28 =   0.     
 +1:tdn7a29 =   0.      1:tdn7a3  =   0.      1:tdn7a30 =   0.     
 +1:tdn7a31 =   0.      1:tdn7a32 =   0.      1:tdn7a4  =   0.     
 +1:tdn7a5  =   0.      1:tdn7a6  =   0.      1:tdn7a7  =   0.     
 +1:tdn7a8  =   0.      1:tdn7a9  =   0.      1:tdn8a10 =   0.     
 +1:tdn8a11 =   0.      1:tdn8a12 =   0.      1:tdn8a13 =   0.     
 +1:tdn8a14 =   0.      1:tdn8a15 =   0.      1:tdn8a16 =   0.     
 +1:tdn8a17 =   0.      1:tdn8a18 =   0.      1:tdn8a19 =   0.     
 +1:tdn8a2  =   0.      1:tdn8a20 =   0.      1:tdn8a21 =   0.     
 +1:tdn8a22 =   0.      1:tdn8a23 =   0.      1:tdn8a24 =   0.     
 +1:tdn8a25 =   0.      1:tdn8a26 =   0.      1:tdn8a27 =   0.     
 +1:tdn8a28 =   0.      1:tdn8a29 =   0.      1:tdn8a3  =   0.     
 +1:tdn8a30 =   0.      1:tdn8a31 =   0.      1:tdn8a32 =   0.     
 +1:tdn8a4  =   0.      1:tdn8a5  =   0.      1:tdn8a6  =   0.     
 +1:tdn8a7  =   0.      1:tdn8a8  =   0.      1:tdn8a9  =   0.     
 +1:tdn9a10 =   0.      1:tdn9a11 =   0.      1:tdn9a12 =   0.     
 +1:tdn9a13 =   0.      1:tdn9a14 =   0.      1:tdn9a15 =   0.     
 +1:tdn9a16 =   0.      1:tdn9a17 =   0.      1:tdn9a18 =   0.     
 +1:tdn9a19 =   0.      1:tdn9a2  =   0.      1:tdn9a20 =   0.     
 +1:tdn9a21 =   0.      1:tdn9a22 =   0.      1:tdn9a23 =   0.     
 +1:tdn9a24 =   0.      1:tdn9a25 =   0.      1:tdn9a26 =   0.     
 +1:tdn9a27 =   0.      1:tdn9a28 =   0.      1:tdn9a29 =   0.     
 +1:tdn9a3  =   0.      1:tdn9a30 =   0.      1:tdn9a31 =   0.     
 +1:tdn9a32 =   0.      1:tdn9a4  =   0.      1:tdn9a5  =   0.     
 +1:tdn9a6  =   0.      1:tdn9a7  =   0.      1:tdn9a8  =   0.     
 +1:tdn9a9  =   0.      1:tdnga10 =   0.      1:tdnga11 =   0.     
 +1:tdnga12 =   0.      1:tdnga13 =   0.      1:tdnga14 =   0.     
 +1:tdnga15 =   0.      1:tdnga16 =   0.      1:tdnga17 =   0.     
 +1:tdnga18 =   0.      1:tdnga19 =   0.      1:tdnga2  =   0.     
 +1:tdnga20 =   0.      1:tdnga21 =   0.      1:tdnga22 =   0.     
 +1:tdnga23 =   0.      1:tdnga24 =   0.      1:tdnga25 =   0.     
 +1:tdnga26 =   0.      1:tdnga27 =   0.      1:tdnga28 =   0.     
 +1:tdnga29 =   0.      1:tdnga3  =   0.      1:tdnga30 =   0.     
 +1:tdnga31 =   0.      1:tdnga32 =   0.      1:tdnga4  =   0.     
 +1:tdnga5  =   0.      1:tdnga6  =   0.      1:tdnga7  =   0.     
 +1:tdnga8  =   0.      1:tdnga9  =   0.      1:tdnva10 =   0.     
 +1:tdnva11 =   0.      1:tdnva12 =   0.      1:tdnva13 =   0.     
 +1:tdnva14 =   0.      1:tdnva15 =   0.      1:tdnva16 =   0.     
 +1:tdnva17 =   0.      1:tdnva18 =   0.      1:tdnva19 =   0.     
 +1:tdnva2  =   0.      1:tdnva20 =   0.      1:tdnva21 =   0.     
 +1:tdnva22 =   0.      1:tdnva23 =   0.      1:tdnva24 =   0.     
 +1:tdnva25 =   0.      1:tdnva26 =   0.      1:tdnva27 =   0.     
 +1:tdnva28 =   0.      1:tdnva29 =   0.      1:tdnva3  =   0.     
 +1:tdnva30 =   0.      1:tdnva31 =   0.      1:tdnva32 =   0.     
 +1:tdnva4  =   0.      1:tdnva5  =   0.      1:tdnva6  =   0.     
 +1:tdnva7  =   0.      1:tdnva8  =   0.      1:tdnva9  =   0.     

 ******  
 *a bus interconnect circuit with 34 bus line 16 segment.

  ******  transient analysis tnom=  25.000 temp=  25.000 *****
x

        time    voltage      voltage      voltage      voltage    
                  tdn1a9       tdn2a9       tdn3a9       tdn4a9   
    0.            0.           0.           0.           0.       
    1.00000p     -7.0252u     -7.0252u     -7.0252u     -7.0252u  
    2.00000p    -14.6527u    -14.6527u    -14.6527u    -14.6527u  
    3.00000p    -22.6837u    -22.6837u    -22.6837u    -22.6837u  
    4.00000p    -30.7147u    -30.7147u    -30.7147u    -30.7147u  
    5.00000p    -38.7457u    -38.7457u    -38.7457u    -38.7457u  
    6.00000p    -47.1332u    -47.1332u    -47.1332u    -47.1332u  
    7.00000p    -55.6097u    -55.6097u    -55.6097u    -55.6097u  
    8.00000p    -64.0863u    -64.0863u    -64.0863u    -64.0863u  
    9.00000p    -72.5629u    -72.5629u    -72.5629u    -72.5629u  
   10.00000p    -81.0395u    -81.0395u    -81.0395u    -81.0395u  
   11.00000p    -89.5161u    -89.5161u    -89.5161u    -89.5161u  
   12.00000p    -97.9926u    -97.9926u    -97.9926u    -97.9926u  
   13.00000p   -106.4692u   -106.4692u   -106.4692u   -106.4692u  
   14.00000p   -114.9458u   -114.9458u   -114.9458u   -114.9458u  
   15.00000p   -123.4224u   -123.4224u   -123.4224u   -123.4224u  
   16.00000p   -132.0478u   -132.0451u   -132.0454u   -132.0455u  
   17.00000p   -140.7902u   -140.7825u   -140.7836u   -140.7838u  
   18.00000p   -149.5326u   -149.5199u   -149.5217u   -149.5221u  
   19.00000p   -158.2750u   -158.2574u   -158.2598u   -158.2604u  
   20.00000p   -167.0174u   -166.9948u   -166.9979u   -166.9986u  
   21.00000p   -175.7598u   -175.7323u   -175.7360u   -175.7369u  
   22.00000p   -184.5022u   -184.4697u   -184.4742u   -184.4752u  
   23.00000p   -193.2446u   -193.2071u   -193.2123u   -193.2135u  
   24.00000p   -201.9870u   -201.9446u   -201.9504u   -201.9518u  
   25.00000p   -210.7294u   -210.6820u   -210.6885u   -210.6900u  
   26.00000p   -219.4718u   -219.4195u   -219.4266u   -219.4283u  
   27.00000p   -228.2142u   -228.1569u   -228.1648u   -228.1666u  
   28.00000p   -236.9566u   -236.8943u   -236.9029u   -236.9049u  
   29.00000p   -245.6990u   -245.6318u   -245.6410u   -245.6432u  
   30.00000p   -254.4414u   -254.3692u   -254.3791u   -254.3814u  
   31.00000p   -263.1837u   -263.1067u   -263.1172u   -263.1197u  
   32.00000p   -271.9261u   -271.8441u   -271.8554u   -271.8580u  
   33.00000p   -280.6685u   -280.5815u   -280.5935u   -280.5963u  
   34.00000p   -289.4109u   -289.3190u   -289.3316u   -289.3345u  
   35.00000p   -298.1533u   -298.0564u   -298.0697u   -298.0728u  
   36.00000p   -306.8957u   -306.7939u   -306.8078u   -306.8111u  
   37.00000p   -315.6381u   -315.5313u   -315.5460u   -315.5494u  
   38.00000p   -324.3805u   -324.2688u   -324.2841u   -324.2877u  
   39.00000p   -333.1229u   -333.0062u   -333.0222u   -333.0259u  
   40.00000p   -341.8653u   -341.7436u   -341.7603u   -341.7642u  
   41.00000p   -350.6077u   -350.4811u   -350.4984u   -350.5025u  
   42.00000p   -359.3501u   -359.2185u   -359.2366u   -359.2408u  
   43.00000p   -368.0925u   -367.9560u   -367.9747u   -367.9791u  
   44.00000p   -376.8349u   -376.6934u   -376.7128u   -376.7173u  
   45.00000p   -385.5773u   -385.4308u   -385.4509u   -385.4556u  
   46.00000p   -394.3197u   -394.1683u   -394.1890u   -394.1939u  
   47.00000p   -403.0621u   -402.9057u   -402.9272u   -402.9322u  
   48.00000p   -411.8044u   -411.6432u   -411.6653u   -411.6705u  
   49.00000p   -421.0173u   -420.6687u   -420.6783u   -420.6853u  
   50.00000p   -430.3537u   -429.7700u   -429.7635u   -429.7729u  
   51.00000p   -439.6901u   -438.8712u   -438.8488u   -438.8604u  
   52.00000p   -449.0265u   -447.9725u   -447.9340u   -447.9480u  
   53.00000p   -458.3629u   -457.0737u   -457.0193u   -457.0355u  
   54.00000p   -467.6993u   -466.1749u   -466.1045u   -466.1231u  
   55.00000p   -477.0358u   -475.2762u   -475.1897u   -475.2106u  
   56.00000p   -486.3722u   -484.3774u   -484.2750u   -484.2982u  
   57.00000p   -495.7086u   -493.4787u   -493.3602u   -493.3857u  
   58.00000p   -505.0450u   -502.5799u   -502.4454u   -502.4732u  
   59.00000p   -514.3814u   -511.6811u   -511.5307u   -511.5608u  
   60.00000p   -523.7178u   -520.7824u   -520.6159u   -520.6483u  
   61.00000p   -533.0542u   -529.8836u   -529.7011u   -529.7359u  
   62.00000p   -542.3906u   -538.9849u   -538.7864u   -538.8234u  
   63.00000p   -551.7270u   -548.0861u   -547.8716u   -547.9110u  
   64.00000p   -561.0634u   -557.1873u   -556.9568u   -556.9985u  
   65.00000p   -570.3999u   -566.2886u   -566.0421u   -566.0860u  
   66.00000p   -579.7363u   -575.3898u   -575.1273u   -575.1736u  
   67.00000p   -589.0727u   -584.4911u   -584.2125u   -584.2611u  
   68.00000p   -598.4091u   -593.5923u   -593.2978u   -593.3487u  
   69.00000p   -607.7455u   -602.6936u   -602.3830u   -602.4362u  
   70.00000p   -617.0819u   -611.7948u   -611.4683u   -611.5238u  
   71.00000p   -626.4183u   -620.8960u   -620.5535u   -620.6113u  
   72.00000p   -635.7547u   -629.9973u   -629.6387u   -629.6988u  
   73.00000p   -645.0911u   -639.0985u   -638.7240u   -638.7864u  
   74.00000p   -654.4275u   -648.1998u   -647.8092u   -647.8739u  
   75.00000p   -663.7640u   -657.3010u   -656.8944u   -656.9615u  
   76.00000p   -673.1004u   -666.4022u   -665.9797u   -666.0490u  
   77.00000p   -682.4368u   -675.5035u   -675.0649u   -675.1366u  
   78.00000p   -691.7732u   -684.6047u   -684.1501u   -684.2241u  
   79.00000p   -701.1096u   -693.7060u   -693.2354u   -693.3117u  
   80.00000p   -710.4460u   -702.8072u   -702.3206u   -702.3992u  
   81.00000p   -719.7824u   -711.9085u   -711.4058u   -711.4867u  
   82.00000p   -729.1188u   -721.0097u   -720.4911u   -720.5743u  
   83.00000p   -738.4552u   -730.1109u   -729.5763u   -729.6618u  
   84.00000p   -747.7916u   -739.2122u   -738.6616u   -738.7494u  
   85.00000p   -757.1281u   -748.3134u   -747.7468u   -747.8369u  
   86.00000p   -766.4645u   -757.4147u   -756.8320u   -756.9245u  
   87.00000p   -775.8009u   -766.5159u   -765.9173u   -766.0120u  
   88.00000p   -785.1373u   -775.6171u   -775.0025u   -775.0995u  
   89.00000p   -794.4737u   -784.7184u   -784.0877u   -784.1871u  
   90.00000p   -803.8101u   -793.8196u   -793.1730u   -793.2746u  
   91.00000p   -813.1465u   -802.9209u   -802.2582u   -802.3622u  
   92.00000p   -822.4829u   -812.0221u   -811.3434u   -811.4497u  
   93.00000p   -831.8193u   -821.1234u   -820.4287u   -820.5373u  
   94.00000p   -841.1557u   -830.2246u   -829.5139u   -829.6248u  
   95.00000p   -850.4922u   -839.3258u   -838.5991u   -838.7123u  
   96.00000p   -859.8286u   -848.4271u   -847.6844u   -847.7999u  
   97.00000p   -869.1650u   -857.5283u   -856.7696u   -856.8874u  
   98.00000p   -878.5014u   -866.6296u   -865.8548u   -865.9750u  
   99.00000p   -889.2177u   -876.1398u   -875.1373u   -875.2239u  
  100.00000p   -900.2965u   -885.7574u   -884.4717u   -884.5153u  
  101.00000p   -911.3753u   -895.3750u   -893.8060u   -893.8066u  
  102.00000p   -922.4540u   -904.9926u   -903.1403u   -903.0980u  
  103.00000p   -933.5328u   -914.6102u   -912.4746u   -912.3893u  
  104.00000p   -944.6116u   -924.2278u   -921.8089u   -921.6807u  
  105.00000p   -955.6903u   -933.8454u   -931.1432u   -930.9720u  
  106.00000p   -966.7691u   -943.4630u   -940.4775u   -940.2633u  
  107.00000p   -977.8478u   -953.0806u   -949.8118u   -949.5547u  
  108.00000p   -988.9266u   -962.6982u   -959.1462u   -958.8460u  
  109.00000p     -1.0000m   -972.3158u   -968.4805u   -968.1374u  
  110.00000p     -1.0111m   -981.9333u   -977.8148u   -977.4287u  
  111.00000p     -1.0222m   -991.5509u   -987.1491u   -986.7201u  
  112.00000p     -1.0332m     -1.0012m   -996.4834u   -996.0114u  
  113.00000p     -1.0443m     -1.0108m     -1.0058m     -1.0053m  
  114.00000p     -1.0554m     -1.0204m     -1.0152m     -1.0146m  
  115.00000p     -1.0665m     -1.0300m     -1.0245m     -1.0239m  
  116.00000p     -1.0776m     -1.0396m     -1.0338m     -1.0332m  
  117.00000p     -1.0886m     -1.0493m     -1.0432m     -1.0425m  
  118.00000p     -1.0997m     -1.0589m     -1.0525m     -1.0518m  
  119.00000p     -1.1108m     -1.0685m     -1.0618m     -1.0611m  
  120.00000p     -1.1219m     -1.0781m     -1.0712m     -1.0703m  
  121.00000p     -1.1330m     -1.0877m     -1.0805m     -1.0796m  
  122.00000p     -1.1440m     -1.0973m     -1.0898m     -1.0889m  
  123.00000p     -1.1551m     -1.1070m     -1.0992m     -1.0982m  
  124.00000p     -1.1662m     -1.1166m     -1.1085m     -1.1075m  
  125.00000p     -1.1773m     -1.1262m     -1.1178m     -1.1168m  
  126.00000p     -1.1883m     -1.1358m     -1.1272m     -1.1261m  
  127.00000p     -1.1994m     -1.1454m     -1.1365m     -1.1354m  
  128.00000p     -1.2105m     -1.1551m     -1.1458m     -1.1447m  
  129.00000p     -1.2216m     -1.1647m     -1.1552m     -1.1540m  
  130.00000p     -1.2327m     -1.1743m     -1.1645m     -1.1633m  
  131.00000p     -1.2437m     -1.1839m     -1.1738m     -1.1725m  
  132.00000p     -1.2548m     -1.1935m     -1.1832m     -1.1818m  
  133.00000p     -1.2659m     -1.2031m     -1.1925m     -1.1911m  
  134.00000p     -1.2770m     -1.2128m     -1.2018m     -1.2004m  
  135.00000p     -1.2881m     -1.2224m     -1.2112m     -1.2097m  
  136.00000p     -1.2991m     -1.2320m     -1.2205m     -1.2190m  
  137.00000p     -1.3102m     -1.2416m     -1.2298m     -1.2283m  
  138.00000p     -1.3213m     -1.2512m     -1.2392m     -1.2376m  
  139.00000p     -1.3324m     -1.2608m     -1.2485m     -1.2469m  
  140.00000p     -1.3434m     -1.2705m     -1.2578m     -1.2562m  
  141.00000p     -1.3545m     -1.2801m     -1.2672m     -1.2655m  
  142.00000p     -1.3656m     -1.2897m     -1.2765m     -1.2748m  
  143.00000p     -1.3767m     -1.2993m     -1.2858m     -1.2840m  
  144.00000p     -1.3878m     -1.3089m     -1.2952m     -1.2933m  
  145.00000p     -1.3988m     -1.3185m     -1.3045m     -1.3026m  
  146.00000p     -1.4099m     -1.3282m     -1.3139m     -1.3119m  
  147.00000p     -1.4210m     -1.3378m     -1.3232m     -1.3212m  
  148.00000p     -1.4321m     -1.3474m     -1.3325m     -1.3305m  
  149.00000p     -1.4463m     -1.3583m     -1.3422m     -1.3398m  
  150.00000p     -1.4615m     -1.3694m     -1.3519m     -1.3491m  
  151.00000p     -1.4766m     -1.3806m     -1.3616m     -1.3584m  
  152.00000p     -1.4917m     -1.3918m     -1.3714m     -1.3677m  
  153.00000p     -1.5068m     -1.4030m     -1.3811m     -1.3770m  
  154.00000p     -1.5219m     -1.4142m     -1.3908m     -1.3863m  
  155.00000p     -1.5370m     -1.4254m     -1.4006m     -1.3956m  
  156.00000p     -1.5521m     -1.4366m     -1.4103m     -1.4049m  
  157.00000p     -1.5672m     -1.4478m     -1.4200m     -1.4142m  
  158.00000p     -1.5823m     -1.4589m     -1.4298m     -1.4235m  
  159.00000p     -1.5974m     -1.4701m     -1.4395m     -1.4328m  
  160.00000p     -1.6125m     -1.4813m     -1.4492m     -1.4421m  
  161.00000p     -1.6277m     -1.4925m     -1.4590m     -1.4514m  
  162.00000p     -1.6428m     -1.5037m     -1.4687m     -1.4607m  
  163.00000p     -1.6579m     -1.5149m     -1.4784m     -1.4699m  
  164.00000p     -1.6730m     -1.5261m     -1.4882m     -1.4792m  
  165.00000p     -1.6881m     -1.5373m     -1.4979m     -1.4885m  
  166.00000p     -1.7032m     -1.5484m     -1.5076m     -1.4978m  
  167.00000p     -1.7183m     -1.5596m     -1.5174m     -1.5071m  
  168.00000p     -1.7334m     -1.5708m     -1.5271m     -1.5164m  
  169.00000p     -1.7485m     -1.5820m     -1.5368m     -1.5257m  
  170.00000p     -1.7636m     -1.5932m     -1.5466m     -1.5350m  
  171.00000p     -1.7787m     -1.6044m     -1.5563m     -1.5443m  
  172.00000p     -1.7939m     -1.6156m     -1.5660m     -1.5536m  
  173.00000p     -1.8090m     -1.6268m     -1.5758m     -1.5629m  
  174.00000p     -1.8241m     -1.6379m     -1.5855m     -1.5722m  
  175.00000p     -1.8392m     -1.6491m     -1.5952m     -1.5815m  
  176.00000p     -1.8543m     -1.6603m     -1.6050m     -1.5908m  
  177.00000p     -1.8694m     -1.6715m     -1.6147m     -1.6001m  
  178.00000p     -1.8845m     -1.6827m     -1.6244m     -1.6094m  
  179.00000p     -1.8996m     -1.6939m     -1.6342m     -1.6187m  
  180.00000p     -1.9147m     -1.7051m     -1.6439m     -1.6280m  
  181.00000p     -1.9298m     -1.7163m     -1.6536m     -1.6373m  
  182.00000p     -1.9449m     -1.7274m     -1.6634m     -1.6466m  
  183.00000p     -1.9601m     -1.7386m     -1.6731m     -1.6559m  
  184.00000p     -1.9752m     -1.7498m     -1.6829m     -1.6652m  
  185.00000p     -1.9903m     -1.7610m     -1.6926m     -1.6745m  
  186.00000p     -2.0054m     -1.7722m     -1.7023m     -1.6838m  
  187.00000p     -2.0205m     -1.7834m     -1.7121m     -1.6931m  
  188.00000p     -2.0356m     -1.7946m     -1.7218m     -1.7024m  
  189.00000p     -2.0507m     -1.8057m     -1.7315m     -1.7117m  
  190.00000p     -2.0658m     -1.8169m     -1.7413m     -1.7210m  
  191.00000p     -2.0809m     -1.8281m     -1.7510m     -1.7302m  
  192.00000p     -2.0960m     -1.8393m     -1.7607m     -1.7395m  
  193.00000p     -2.1111m     -1.8505m     -1.7705m     -1.7488m  
  194.00000p     -2.1262m     -1.8617m     -1.7802m     -1.7581m  
  195.00000p     -2.1414m     -1.8729m     -1.7899m     -1.7674m  
  196.00000p     -2.1565m     -1.8841m     -1.7997m     -1.7767m  
  197.00000p     -2.1716m     -1.8952m     -1.8094m     -1.7860m  
  198.00000p     -2.1867m     -1.9064m     -1.8191m     -1.7953m  
  199.00000p     -2.2053m     -1.9203m     -1.8300m     -1.8048m  
  200.00000p     -2.2249m     -1.9349m     -1.8411m     -1.8144m  
  201.00000p     -2.2445m     -1.9495m     -1.8522m     -1.8240m  
  202.00000p     -2.2640m     -1.9640m     -1.8633m     -1.8335m  
  203.00000p     -2.2836m     -1.9786m     -1.8744m     -1.8431m  
  204.00000p     -2.3032m     -1.9932m     -1.8856m     -1.8527m  
  205.00000p     -2.3227m     -2.0078m     -1.8967m     -1.8622m  
  206.00000p     -2.3423m     -2.0224m     -1.9078m     -1.8718m  
  207.00000p     -2.3618m     -2.0369m     -1.9189m     -1.8814m  
  208.00000p     -2.3814m     -2.0515m     -1.9300m     -1.8910m  
  209.00000p     -2.4010m     -2.0661m     -1.9411m     -1.9005m  
  210.00000p     -2.4205m     -2.0807m     -1.9523m     -1.9101m  
  211.00000p     -2.4401m     -2.0952m     -1.9634m     -1.9197m  
  212.00000p     -2.4597m     -2.1098m     -1.9745m     -1.9292m  
  213.00000p     -2.4792m     -2.1244m     -1.9856m     -1.9388m  
  214.00000p     -2.4988m     -2.1390m     -1.9967m     -1.9484m  
  215.00000p     -2.5184m     -2.1536m     -2.0079m     -1.9579m  
  216.00000p     -2.5379m     -2.1681m     -2.0190m     -1.9675m  
  217.00000p     -2.5575m     -2.1827m     -2.0301m     -1.9771m  
  218.00000p     -2.5771m     -2.1973m     -2.0412m     -1.9866m  
  219.00000p     -2.5966m     -2.2119m     -2.0523m     -1.9962m  
  220.00000p     -2.6162m     -2.2264m     -2.0635m     -2.0058m  
  221.00000p     -2.6358m     -2.2410m     -2.0746m     -2.0153m  
  222.00000p     -2.6553m     -2.2556m     -2.0857m     -2.0249m  
  223.00000p     -2.6749m     -2.2702m     -2.0968m     -2.0345m  
  224.00000p     -2.6945m     -2.2848m     -2.1079m     -2.0441m  
  225.00000p     -2.7140m     -2.2993m     -2.1191m     -2.0536m  
  226.00000p     -2.7336m     -2.3139m     -2.1302m     -2.0632m  
  227.00000p     -2.7532m     -2.3285m     -2.1413m     -2.0728m  
  228.00000p     -2.7727m     -2.3431m     -2.1524m     -2.0823m  
  229.00000p     -2.7923m     -2.3577m     -2.1635m     -2.0919m  
  230.00000p     -2.8119m     -2.3722m     -2.1746m     -2.1015m  
  231.00000p     -2.8314m     -2.3868m     -2.1858m     -2.1110m  
  232.00000p     -2.8510m     -2.4014m     -2.1969m     -2.1206m  
  233.00000p     -2.8706m     -2.4160m     -2.2080m     -2.1302m  
  234.00000p     -2.8901m     -2.4305m     -2.2191m     -2.1397m  
  235.00000p     -2.9097m     -2.4451m     -2.2302m     -2.1493m  
  236.00000p     -2.9293m     -2.4597m     -2.2414m     -2.1589m  
  237.00000p     -2.9488m     -2.4743m     -2.2525m     -2.1684m  
  238.00000p     -2.9684m     -2.4889m     -2.2636m     -2.1780m  
  239.00000p     -2.9880m     -2.5034m     -2.2747m     -2.1876m  
  240.00000p     -3.0075m     -2.5180m     -2.2858m     -2.1972m  
  241.00000p     -3.0271m     -2.5326m     -2.2970m     -2.2067m  
  242.00000p     -3.0467m     -2.5472m     -2.3081m     -2.2163m  
  243.00000p     -3.0662m     -2.5617m     -2.3192m     -2.2259m  
  244.00000p     -3.0858m     -2.5763m     -2.3303m     -2.2354m  
  245.00000p     -3.1054m     -2.5909m     -2.3414m     -2.2450m  
  246.00000p     -3.1249m     -2.6055m     -2.3526m     -2.2546m  
  247.00000p     -3.1445m     -2.6201m     -2.3637m     -2.2641m  
  248.00000p     -3.1640m     -2.6346m     -2.3748m     -2.2737m  
  249.00000p     -3.1836m     -2.6516m     -2.3881m     -2.2848m  
  250.00000p     -3.2031m     -2.6692m     -2.4020m     -2.2963m  
  251.00000p     -3.2227m     -2.6869m     -2.4159m     -2.3078m  
  252.00000p     -3.2422m     -2.7045m     -2.4298m     -2.3193m  
  253.00000p     -3.2618m     -2.7221m     -2.4437m     -2.3308m  
  254.00000p     -3.2813m     -2.7397m     -2.4576m     -2.3423m  
  255.00000p     -3.3008m     -2.7573m     -2.4715m     -2.3538m  
  256.00000p     -3.3204m     -2.7749m     -2.4855m     -2.3654m  
  257.00000p     -3.3399m     -2.7926m     -2.4994m     -2.3769m  
  258.00000p     -3.3595m     -2.8102m     -2.5133m     -2.3884m  
  259.00000p     -3.3790m     -2.8278m     -2.5272m     -2.3999m  
  260.00000p     -3.3986m     -2.8454m     -2.5411m     -2.4114m  
  261.00000p     -3.4181m     -2.8630m     -2.5550m     -2.4229m  
  262.00000p     -3.4376m     -2.8807m     -2.5689m     -2.4344m  
  263.00000p     -3.4572m     -2.8983m     -2.5828m     -2.4459m  
  264.00000p     -3.4767m     -2.9159m     -2.5967m     -2.4574m  
  265.00000p     -3.4963m     -2.9335m     -2.6106m     -2.4689m  
  266.00000p     -3.5158m     -2.9511m     -2.6245m     -2.4804m  
  267.00000p     -3.5354m     -2.9687m     -2.6384m     -2.4919m  
  268.00000p     -3.5549m     -2.9864m     -2.6523m     -2.5034m  
  269.00000p     -3.5744m     -3.0040m     -2.6662m     -2.5149m  
  270.00000p     -3.5940m     -3.0216m     -2.6801m     -2.5264m  
  271.00000p     -3.6135m     -3.0392m     -2.6940m     -2.5380m  
  272.00000p     -3.6331m     -3.0568m     -2.7079m     -2.5495m  
  273.00000p     -3.6526m     -3.0745m     -2.7219m     -2.5610m  
  274.00000p     -3.6721m     -3.0921m     -2.7358m     -2.5725m  
  275.00000p     -3.6917m     -3.1097m     -2.7497m     -2.5840m  
  276.00000p     -3.7112m     -3.1273m     -2.7636m     -2.5955m  
  277.00000p     -3.7308m     -3.1449m     -2.7775m     -2.6070m  
  278.00000p     -3.7503m     -3.1625m     -2.7914m     -2.6185m  
  279.00000p     -3.7699m     -3.1802m     -2.8053m     -2.6300m  
  280.00000p     -3.7894m     -3.1978m     -2.8192m     -2.6415m  
  281.00000p     -3.8089m     -3.2154m     -2.8331m     -2.6530m  
  282.00000p     -3.8285m     -3.2330m     -2.8470m     -2.6645m  
  283.00000p     -3.8480m     -3.2506m     -2.8609m     -2.6760m  
  284.00000p     -3.8676m     -3.2683m     -2.8748m     -2.6875m  
  285.00000p     -3.8871m     -3.2859m     -2.8887m     -2.6990m  
  286.00000p     -3.9067m     -3.3035m     -2.9026m     -2.7106m  
  287.00000p     -3.9262m     -3.3211m     -2.9165m     -2.7221m  
  288.00000p     -3.9457m     -3.3387m     -2.9304m     -2.7336m  
  289.00000p     -3.9653m     -3.3563m     -2.9443m     -2.7451m  
  290.00000p     -3.9848m     -3.3740m     -2.9582m     -2.7566m  
  291.00000p     -4.0044m     -3.3916m     -2.9722m     -2.7681m  
  292.00000p     -4.0239m     -3.4092m     -2.9861m     -2.7796m  
  293.00000p     -4.0434m     -3.4268m     -3.0000m     -2.7911m  
  294.00000p     -4.0630m     -3.4444m     -3.0139m     -2.8026m  
  295.00000p     -4.0825m     -3.4621m     -3.0278m     -2.8141m  
  296.00000p     -4.1021m     -3.4797m     -3.0417m     -2.8256m  
  297.00000p     -4.1216m     -3.4973m     -3.0556m     -2.8371m  
  298.00000p     -4.1412m     -3.5149m     -3.0695m     -2.8486m  
  299.00000p     -4.1572m     -3.5318m     -3.0854m     -2.8635m  
  300.00000p     -4.1724m     -3.5485m     -3.1018m     -2.8793m  
  301.00000p     -4.1876m     -3.5652m     -3.1182m     -2.8951m  
  302.00000p     -4.2028m     -3.5819m     -3.1346m     -2.9108m  
  303.00000p     -4.2180m     -3.5985m     -3.1510m     -2.9266m  
  304.00000p     -4.2332m     -3.6152m     -3.1674m     -2.9424m  
  305.00000p     -4.2484m     -3.6319m     -3.1839m     -2.9582m  
  306.00000p     -4.2636m     -3.6486m     -3.2003m     -2.9739m  
  307.00000p     -4.2787m     -3.6653m     -3.2167m     -2.9897m  
  308.00000p     -4.2939m     -3.6820m     -3.2331m     -3.0055m  
  309.00000p     -4.3091m     -3.6987m     -3.2495m     -3.0213m  
  310.00000p     -4.3243m     -3.7154m     -3.2659m     -3.0370m  
  311.00000p     -4.3395m     -3.7321m     -3.2823m     -3.0528m  
  312.00000p     -4.3547m     -3.7487m     -3.2987m     -3.0686m  
  313.00000p     -4.3699m     -3.7654m     -3.3151m     -3.0844m  
  314.00000p     -4.3851m     -3.7821m     -3.3316m     -3.1002m  
  315.00000p     -4.4002m     -3.7988m     -3.3480m     -3.1159m  
  316.00000p     -4.4154m     -3.8155m     -3.3644m     -3.1317m  
  317.00000p     -4.4306m     -3.8322m     -3.3808m     -3.1475m  
  318.00000p     -4.4458m     -3.8489m     -3.3972m     -3.1633m  
  319.00000p     -4.4610m     -3.8656m     -3.4136m     -3.1790m  
  320.00000p     -4.4762m     -3.8823m     -3.4300m     -3.1948m  
  321.00000p     -4.4914m     -3.8989m     -3.4464m     -3.2106m  
  322.00000p     -4.5066m     -3.9156m     -3.4629m     -3.2264m  
  323.00000p     -4.5217m     -3.9323m     -3.4793m     -3.2421m  
  324.00000p     -4.5369m     -3.9490m     -3.4957m     -3.2579m  
  325.00000p     -4.5521m     -3.9657m     -3.5121m     -3.2737m  
  326.00000p     -4.5673m     -3.9824m     -3.5285m     -3.2895m  
  327.00000p     -4.5825m     -3.9991m     -3.5449m     -3.3052m  
  328.00000p     -4.5977m     -4.0158m     -3.5613m     -3.3210m  
  329.00000p     -4.6129m     -4.0325m     -3.5777m     -3.3368m  
  330.00000p     -4.6281m     -4.0491m     -3.5941m     -3.3526m  
  331.00000p     -4.6432m     -4.0658m     -3.6106m     -3.3683m  
  332.00000p     -4.6584m     -4.0825m     -3.6270m     -3.3841m  
  333.00000p     -4.6736m     -4.0992m     -3.6434m     -3.3999m  
  334.00000p     -4.6888m     -4.1159m     -3.6598m     -3.4157m  
  335.00000p     -4.7040m     -4.1326m     -3.6762m     -3.4314m  
  336.00000p     -4.7192m     -4.1493m     -3.6926m     -3.4472m  
  337.00000p     -4.7344m     -4.1660m     -3.7090m     -3.4630m  
  338.00000p     -4.7496m     -4.1827m     -3.7254m     -3.4788m  
  339.00000p     -4.7647m     -4.1994m     -3.7418m     -3.4945m  
  340.00000p     -4.7799m     -4.2160m     -3.7583m     -3.5103m  
  341.00000p     -4.7951m     -4.2327m     -3.7747m     -3.5261m  
  342.00000p     -4.8103m     -4.2494m     -3.7911m     -3.5419m  
  343.00000p     -4.8255m     -4.2661m     -3.8075m     -3.5576m  
  344.00000p     -4.8407m     -4.2828m     -3.8239m     -3.5734m  
  345.00000p     -4.8559m     -4.2995m     -3.8403m     -3.5892m  
  346.00000p     -4.8710m     -4.3162m     -3.8567m     -3.6050m  
  347.00000p     -4.8862m     -4.3329m     -3.8731m     -3.6207m  
  348.00000p     -4.9014m     -4.3496m     -3.8896m     -3.6365m  
  349.00000p     -4.9157m     -4.3646m     -3.9066m     -3.6555m  
  350.00000p     -4.9297m     -4.3792m     -3.9238m     -3.6754m  
  351.00000p     -4.9437m     -4.3938m     -3.9410m     -3.6952m  
  352.00000p     -4.9578m     -4.4084m     -3.9582m     -3.7151m  
  353.00000p     -4.9718m     -4.4229m     -3.9754m     -3.7349m  
  354.00000p     -4.9858m     -4.4375m     -3.9926m     -3.7548m  
  355.00000p     -4.9998m     -4.4521m     -4.0098m     -3.7746m  
  356.00000p     -5.0139m     -4.4667m     -4.0270m     -3.7945m  
  357.00000p     -5.0279m     -4.4813m     -4.0442m     -3.8143m  
  358.00000p     -5.0419m     -4.4959m     -4.0614m     -3.8342m  
  359.00000p     -5.0560m     -4.5105m     -4.0786m     -3.8541m  
  360.00000p     -5.0700m     -4.5251m     -4.0958m     -3.8739m  
  361.00000p     -5.0840m     -4.5397m     -4.1130m     -3.8938m  
  362.00000p     -5.0980m     -4.5543m     -4.1302m     -3.9136m  
  363.00000p     -5.1121m     -4.5689m     -4.1474m     -3.9335m  
  364.00000p     -5.1261m     -4.5834m     -4.1646m     -3.9533m  
  365.00000p     -5.1401m     -4.5980m     -4.1817m     -3.9732m  
  366.00000p     -5.1541m     -4.6126m     -4.1989m     -3.9930m  
  367.00000p     -5.1682m     -4.6272m     -4.2161m     -4.0129m  
  368.00000p     -5.1822m     -4.6418m     -4.2333m     -4.0327m  
  369.00000p     -5.1962m     -4.6564m     -4.2505m     -4.0526m  
  370.00000p     -5.2102m     -4.6710m     -4.2677m     -4.0724m  
  371.00000p     -5.2243m     -4.6856m     -4.2849m     -4.0923m  
  372.00000p     -5.2383m     -4.7002m     -4.3021m     -4.1122m  
  373.00000p     -5.2523m     -4.7148m     -4.3193m     -4.1320m  
  374.00000p     -5.2663m     -4.7294m     -4.3365m     -4.1519m  
  375.00000p     -5.2804m     -4.7440m     -4.3537m     -4.1717m  
  376.00000p     -5.2944m     -4.7585m     -4.3709m     -4.1916m  
  377.00000p     -5.3084m     -4.7731m     -4.3881m     -4.2114m  
  378.00000p     -5.3225m     -4.7877m     -4.4053m     -4.2313m  
  379.00000p     -5.3365m     -4.8023m     -4.4225m     -4.2511m  
  380.00000p     -5.3505m     -4.8169m     -4.4397m     -4.2710m  
  381.00000p     -5.3645m     -4.8315m     -4.4569m     -4.2908m  
  382.00000p     -5.3786m     -4.8461m     -4.4741m     -4.3107m  
  383.00000p     -5.3926m     -4.8607m     -4.4913m     -4.3306m  
  384.00000p     -5.4066m     -4.8753m     -4.5085m     -4.3504m  
  385.00000p     -5.4206m     -4.8899m     -4.5257m     -4.3703m  
  386.00000p     -5.4347m     -4.9045m     -4.5429m     -4.3901m  
  387.00000p     -5.4487m     -4.9190m     -4.5601m     -4.4100m  
  388.00000p     -5.4627m     -4.9336m     -4.5773m     -4.4298m  
  389.00000p     -5.4767m     -4.9482m     -4.5945m     -4.4497m  
  390.00000p     -5.4908m     -4.9628m     -4.6117m     -4.4695m  
  391.00000p     -5.5048m     -4.9774m     -4.6289m     -4.4894m  
  392.00000p     -5.5188m     -4.9920m     -4.6461m     -4.5092m  
  393.00000p     -5.5328m     -5.0066m     -4.6633m     -4.5291m  
  394.00000p     -5.5469m     -5.0212m     -4.6805m     -4.5489m  
  395.00000p     -5.5609m     -5.0358m     -4.6977m     -4.5688m  
  396.00000p     -5.5749m     -5.0504m     -4.7149m     -4.5887m  
  397.00000p     -5.5889m     -5.0650m     -4.7321m     -4.6085m  
  398.00000p     -5.6030m     -5.0795m     -4.7493m     -4.6284m  
  399.00000p     -5.6208m     -5.0971m     -4.7679m     -4.6493m  
  400.00000p     -5.6396m     -5.1153m     -4.7869m     -4.6706m  
  401.00000p     -5.6584m     -5.1336m     -4.8060m     -4.6918m  
  402.00000p     -5.6772m     -5.1519m     -4.8250m     -4.7131m  
  403.00000p     -5.6960m     -5.1702m     -4.8440m     -4.7343m  
  404.00000p     -5.7148m     -5.1885m     -4.8630m     -4.7556m  
  405.00000p     -5.7336m     -5.2067m     -4.8820m     -4.7769m  
  406.00000p     -5.7525m     -5.2250m     -4.9011m     -4.7981m  
  407.00000p     -5.7713m     -5.2433m     -4.9201m     -4.8194m  
  408.00000p     -5.7901m     -5.2616m     -4.9391m     -4.8406m  
  409.00000p     -5.8089m     -5.2799m     -4.9581m     -4.8619m  
  410.00000p     -5.8277m     -5.2981m     -4.9771m     -4.8831m  
  411.00000p     -5.8465m     -5.3164m     -4.9962m     -4.9044m  
  412.00000p     -5.8653m     -5.3347m     -5.0152m     -4.9256m  
  413.00000p     -5.8841m     -5.3530m     -5.0342m     -4.9469m  
  414.00000p     -5.9029m     -5.3713m     -5.0532m     -4.9681m  
  415.00000p     -5.9217m     -5.3895m     -5.0722m     -4.9894m  
  416.00000p     -5.9406m     -5.4078m     -5.0913m     -5.0107m  
  417.00000p     -5.9594m     -5.4261m     -5.1103m     -5.0319m  
  418.00000p     -5.9782m     -5.4444m     -5.1293m     -5.0532m  
  419.00000p     -5.9970m     -5.4627m     -5.1483m     -5.0744m  
  420.00000p     -6.0158m     -5.4809m     -5.1673m     -5.0957m  
  421.00000p     -6.0346m     -5.4992m     -5.1863m     -5.1169m  
  422.00000p     -6.0534m     -5.5175m     -5.2054m     -5.1382m  
  423.00000p     -6.0722m     -5.5358m     -5.2244m     -5.1594m  
  424.00000p     -6.0910m     -5.5541m     -5.2434m     -5.1807m  
  425.00000p     -6.1098m     -5.5723m     -5.2624m     -5.2019m  
  426.00000p     -6.1287m     -5.5906m     -5.2814m     -5.2232m  
  427.00000p     -6.1475m     -5.6089m     -5.3005m     -5.2445m  
  428.00000p     -6.1663m     -5.6272m     -5.3195m     -5.2657m  
  429.00000p     -6.1851m     -5.6455m     -5.3385m     -5.2870m  
  430.00000p     -6.2039m     -5.6637m     -5.3575m     -5.3082m  
  431.00000p     -6.2227m     -5.6820m     -5.3765m     -5.3295m  
  432.00000p     -6.2415m     -5.7003m     -5.3956m     -5.3507m  
  433.00000p     -6.2603m     -5.7186m     -5.4146m     -5.3720m  
  434.00000p     -6.2791m     -5.7369m     -5.4336m     -5.3932m  
  435.00000p     -6.2979m     -5.7551m     -5.4526m     -5.4145m  
  436.00000p     -6.3168m     -5.7734m     -5.4716m     -5.4357m  
  437.00000p     -6.3356m     -5.7917m     -5.4907m     -5.4570m  
  438.00000p     -6.3544m     -5.8100m     -5.5097m     -5.4783m  
  439.00000p     -6.3732m     -5.8283m     -5.5287m     -5.4995m  
  440.00000p     -6.3920m     -5.8465m     -5.5477m     -5.5208m  
  441.00000p     -6.4108m     -5.8648m     -5.5667m     -5.5420m  
  442.00000p     -6.4296m     -5.8831m     -5.5858m     -5.5633m  
  443.00000p     -6.4484m     -5.9014m     -5.6048m     -5.5845m  
  444.00000p     -6.4672m     -5.9197m     -5.6238m     -5.6058m  
  445.00000p     -6.4860m     -5.9379m     -5.6428m     -5.6270m  
  446.00000p     -6.5049m     -5.9562m     -5.6618m     -5.6483m  
  447.00000p     -6.5237m     -5.9745m     -5.6809m     -5.6695m  
  448.00000p     -6.5425m     -5.9928m     -5.6999m     -5.6908m  
  449.00000p     -6.5655m     -6.0166m     -5.7228m     -5.7132m  
  450.00000p     -6.5895m     -6.0418m     -5.7468m     -5.7360m  
  451.00000p     -6.6136m     -6.0670m     -5.7707m     -5.7588m  
  452.00000p     -6.6377m     -6.0923m     -5.7947m     -5.7815m  
  453.00000p     -6.6618m     -6.1175m     -5.8186m     -5.8043m  
  454.00000p     -6.6858m     -6.1428m     -5.8426m     -5.8270m  
  455.00000p     -6.7099m     -6.1680m     -5.8666m     -5.8498m  
  456.00000p     -6.7340m     -6.1932m     -5.8905m     -5.8726m  
  457.00000p     -6.7581m     -6.2185m     -5.9145m     -5.8953m  
  458.00000p     -6.7822m     -6.2437m     -5.9384m     -5.9181m  
  459.00000p     -6.8062m     -6.2690m     -5.9624m     -5.9408m  
  460.00000p     -6.8303m     -6.2942m     -5.9864m     -5.9636m  
  461.00000p     -6.8544m     -6.3194m     -6.0103m     -5.9863m  
  462.00000p     -6.8785m     -6.3447m     -6.0343m     -6.0091m  
  463.00000p     -6.9026m     -6.3699m     -6.0582m     -6.0319m  
  464.00000p     -6.9266m     -6.3951m     -6.0822m     -6.0546m  
  465.00000p     -6.9507m     -6.4204m     -6.1061m     -6.0774m  
  466.00000p     -6.9748m     -6.4456m     -6.1301m     -6.1001m  
  467.00000p     -6.9989m     -6.4709m     -6.1541m     -6.1229m  
  468.00000p     -7.0229m     -6.4961m     -6.1780m     -6.1457m  
  469.00000p     -7.0470m     -6.5213m     -6.2020m     -6.1684m  
  470.00000p     -7.0711m     -6.5466m     -6.2259m     -6.1912m  
  471.00000p     -7.0952m     -6.5718m     -6.2499m     -6.2139m  
  472.00000p     -7.1193m     -6.5970m     -6.2739m     -6.2367m  
  473.00000p     -7.1433m     -6.6223m     -6.2978m     -6.2595m  
  474.00000p     -7.1674m     -6.6475m     -6.3218m     -6.2822m  
  475.00000p     -7.1915m     -6.6728m     -6.3457m     -6.3050m  
  476.00000p     -7.2156m     -6.6980m     -6.3697m     -6.3277m  
  477.00000p     -7.2397m     -6.7232m     -6.3936m     -6.3505m  
  478.00000p     -7.2637m     -6.7485m     -6.4176m     -6.3732m  
  479.00000p     -7.2878m     -6.7737m     -6.4416m     -6.3960m  
  480.00000p     -7.3119m     -6.7990m     -6.4655m     -6.4188m  
  481.00000p     -7.3360m     -6.8242m     -6.4895m     -6.4415m  
  482.00000p     -7.3600m     -6.8494m     -6.5134m     -6.4643m  
  483.00000p     -7.3841m     -6.8747m     -6.5374m     -6.4870m  
  484.00000p     -7.4082m     -6.8999m     -6.5614m     -6.5098m  
  485.00000p     -7.4323m     -6.9251m     -6.5853m     -6.5326m  
  486.00000p     -7.4564m     -6.9504m     -6.6093m     -6.5553m  
  487.00000p     -7.4804m     -6.9756m     -6.6332m     -6.5781m  
  488.00000p     -7.5045m     -7.0009m     -6.6572m     -6.6008m  
  489.00000p     -7.5286m     -7.0261m     -6.6811m     -6.6236m  
  490.00000p     -7.5527m     -7.0513m     -6.7051m     -6.6463m  
  491.00000p     -7.5767m     -7.0766m     -6.7291m     -6.6691m  
  492.00000p     -7.6008m     -7.1018m     -6.7530m     -6.6919m  
  493.00000p     -7.6249m     -7.1271m     -6.7770m     -6.7146m  
  494.00000p     -7.6490m     -7.1523m     -6.8009m     -6.7374m  
  495.00000p     -7.6731m     -7.1775m     -6.8249m     -6.7601m  
  496.00000p     -7.6971m     -7.2028m     -6.8489m     -6.7829m  
  497.00000p     -7.7212m     -7.2280m     -6.8728m     -6.8057m  
  498.00000p     -7.7453m     -7.2532m     -6.8968m     -6.8284m  
  499.00000p     -7.7742m     -7.2831m     -6.9265m     -6.8575m  
  500.00000p     -7.8044m     -7.3143m     -6.9578m     -6.8883m  
  501.00000p     -7.8346m     -7.3454m     -6.9891m     -6.9191m  
  502.00000p     -7.8647m     -7.3765m     -7.0204m     -6.9498m  
  503.00000p     -7.8949m     -7.4076m     -7.0517m     -6.9806m  
  504.00000p     -7.9251m     -7.4387m     -7.0830m     -7.0114m  
  505.00000p     -7.9553m     -7.4698m     -7.1143m     -7.0422m  
  506.00000p     -7.9854m     -7.5010m     -7.1456m     -7.0729m  
  507.00000p     -8.0156m     -7.5321m     -7.1769m     -7.1037m  
  508.00000p     -8.0458m     -7.5632m     -7.2082m     -7.1345m  
  509.00000p     -8.0760m     -7.5943m     -7.2395m     -7.1653m  
  510.00000p     -8.1061m     -7.6254m     -7.2708m     -7.1960m  
  511.00000p     -8.1363m     -7.6565m     -7.3021m     -7.2268m  
  512.00000p     -8.1665m     -7.6876m     -7.3334m     -7.2576m  
  513.00000p     -8.1967m     -7.7188m     -7.3647m     -7.2883m  
  514.00000p     -8.2268m     -7.7499m     -7.3960m     -7.3191m  
  515.00000p     -8.2570m     -7.7810m     -7.4273m     -7.3499m  
  516.00000p     -8.2872m     -7.8121m     -7.4586m     -7.3807m  
  517.00000p     -8.3174m     -7.8432m     -7.4899m     -7.4114m  
  518.00000p     -8.3475m     -7.8743m     -7.5212m     -7.4422m  
  519.00000p     -8.3777m     -7.9055m     -7.5525m     -7.4730m  
  520.00000p     -8.4079m     -7.9366m     -7.5838m     -7.5038m  
  521.00000p     -8.4381m     -7.9677m     -7.6151m     -7.5345m  
  522.00000p     -8.4682m     -7.9988m     -7.6464m     -7.5653m  
  523.00000p     -8.4984m     -8.0299m     -7.6777m     -7.5961m  
  524.00000p     -8.5286m     -8.0610m     -7.7090m     -7.6268m  
  525.00000p     -8.5588m     -8.0922m     -7.7402m     -7.6576m  
  526.00000p     -8.5889m     -8.1233m     -7.7715m     -7.6884m  
  527.00000p     -8.6191m     -8.1544m     -7.8028m     -7.7192m  
  528.00000p     -8.6493m     -8.1855m     -7.8341m     -7.7499m  
  529.00000p     -8.6795m     -8.2166m     -7.8654m     -7.7807m  
  530.00000p     -8.7096m     -8.2477m     -7.8967m     -7.8115m  
  531.00000p     -8.7398m     -8.2789m     -7.9280m     -7.8423m  
  532.00000p     -8.7700m     -8.3100m     -7.9593m     -7.8730m  
  533.00000p     -8.8002m     -8.3411m     -7.9906m     -7.9038m  
  534.00000p     -8.8303m     -8.3722m     -8.0219m     -7.9346m  
  535.00000p     -8.8605m     -8.4033m     -8.0532m     -7.9653m  
  536.00000p     -8.8907m     -8.4344m     -8.0845m     -7.9961m  
  537.00000p     -8.9209m     -8.4656m     -8.1158m     -8.0269m  
  538.00000p     -8.9510m     -8.4967m     -8.1471m     -8.0577m  
  539.00000p     -8.9812m     -8.5278m     -8.1784m     -8.0884m  
  540.00000p     -9.0114m     -8.5589m     -8.2097m     -8.1192m  
  541.00000p     -9.0416m     -8.5900m     -8.2410m     -8.1500m  
  542.00000p     -9.0717m     -8.6211m     -8.2723m     -8.1808m  
  543.00000p     -9.1019m     -8.6523m     -8.3036m     -8.2115m  
  544.00000p     -9.1321m     -8.6834m     -8.3349m     -8.2423m  
  545.00000p     -9.1623m     -8.7145m     -8.3662m     -8.2731m  
  546.00000p     -9.1924m     -8.7456m     -8.3975m     -8.3038m  
  547.00000p     -9.2226m     -8.7767m     -8.4288m     -8.3346m  
  548.00000p     -9.2528m     -8.8078m     -8.4601m     -8.3654m  
  549.00000p     -9.2851m     -8.8411m     -8.4936m     -8.3988m  
  550.00000p     -9.3179m     -8.8748m     -8.5277m     -8.4330m  
  551.00000p     -9.3508m     -8.9086m     -8.5618m     -8.4671m  
  552.00000p     -9.3836m     -8.9424m     -8.5959m     -8.5012m  
  553.00000p     -9.4164m     -8.9762m     -8.6301m     -8.5353m  
  554.00000p     -9.4493m     -9.0100m     -8.6642m     -8.5695m  
  555.00000p     -9.4821m     -9.0437m     -8.6983m     -8.6036m  
  556.00000p     -9.5149m     -9.0775m     -8.7324m     -8.6377m  
  557.00000p     -9.5478m     -9.1113m     -8.7665m     -8.6718m  
  558.00000p     -9.5806m     -9.1451m     -8.8006m     -8.7060m  
  559.00000p     -9.6135m     -9.1788m     -8.8347m     -8.7401m  
  560.00000p     -9.6463m     -9.2126m     -8.8688m     -8.7742m  
  561.00000p     -9.6791m     -9.2464m     -8.9030m     -8.8084m  
  562.00000p     -9.7120m     -9.2802m     -8.9371m     -8.8425m  
  563.00000p     -9.7448m     -9.3140m     -8.9712m     -8.8766m  
  564.00000p     -9.7777m     -9.3477m     -9.0053m     -8.9107m  
  565.00000p     -9.8105m     -9.3815m     -9.0394m     -8.9449m  
  566.00000p     -9.8433m     -9.4153m     -9.0735m     -8.9790m  
  567.00000p     -9.8762m     -9.4491m     -9.1076m     -9.0131m  
  568.00000p     -9.9090m     -9.4828m     -9.1418m     -9.0472m  
  569.00000p     -9.9418m     -9.5166m     -9.1759m     -9.0814m  
  570.00000p     -9.9747m     -9.5504m     -9.2100m     -9.1155m  
  571.00000p    -10.0075m     -9.5842m     -9.2441m     -9.1496m  
  572.00000p    -10.0404m     -9.6179m     -9.2782m     -9.1838m  
  573.00000p    -10.0732m     -9.6517m     -9.3123m     -9.2179m  
  574.00000p    -10.1060m     -9.6855m     -9.3464m     -9.2520m  
  575.00000p    -10.1389m     -9.7193m     -9.3806m     -9.2861m  
  576.00000p    -10.1717m     -9.7531m     -9.4147m     -9.3203m  
  577.00000p    -10.2046m     -9.7868m     -9.4488m     -9.3544m  
  578.00000p    -10.2374m     -9.8206m     -9.4829m     -9.3885m  
  579.00000p    -10.2702m     -9.8544m     -9.5170m     -9.4227m  
  580.00000p    -10.3031m     -9.8882m     -9.5511m     -9.4568m  
  581.00000p    -10.3359m     -9.9219m     -9.5852m     -9.4909m  
  582.00000p    -10.3688m     -9.9557m     -9.6193m     -9.5250m  
  583.00000p    -10.4016m     -9.9895m     -9.6535m     -9.5592m  
  584.00000p    -10.4344m    -10.0233m     -9.6876m     -9.5933m  
  585.00000p    -10.4673m    -10.0571m     -9.7217m     -9.6274m  
  586.00000p    -10.5001m    -10.0908m     -9.7558m     -9.6615m  
  587.00000p    -10.5329m    -10.1246m     -9.7899m     -9.6957m  
  588.00000p    -10.5658m    -10.1584m     -9.8240m     -9.7298m  
  589.00000p    -10.5986m    -10.1922m     -9.8581m     -9.7639m  
  590.00000p    -10.6315m    -10.2259m     -9.8923m     -9.7981m  
  591.00000p    -10.6643m    -10.2597m     -9.9264m     -9.8322m  
  592.00000p    -10.6971m    -10.2935m     -9.9605m     -9.8663m  
  593.00000p    -10.7300m    -10.3273m     -9.9946m     -9.9004m  
  594.00000p    -10.7628m    -10.3611m    -10.0287m     -9.9346m  
  595.00000p    -10.7957m    -10.3948m    -10.0628m     -9.9687m  
  596.00000p    -10.8285m    -10.4286m    -10.0969m    -10.0028m  
  597.00000p    -10.8613m    -10.4624m    -10.1311m    -10.0369m  
  598.00000p    -10.8942m    -10.4962m    -10.1652m    -10.0711m  
  599.00000p    -10.9293m    -10.5327m    -10.2022m    -10.1083m  
  600.00000p    -10.9651m    -10.5701m    -10.2400m    -10.1463m  
  601.00000p    -11.0008m    -10.6074m    -10.2778m    -10.1844m  
  602.00000p    -11.0366m    -10.6447m    -10.3156m    -10.2224m  
  603.00000p    -11.0724m    -10.6820m    -10.3533m    -10.2604m  
  604.00000p    -11.1081m    -10.7193m    -10.3911m    -10.2985m  
  605.00000p    -11.1439m    -10.7567m    -10.4289m    -10.3365m  
  606.00000p    -11.1796m    -10.7940m    -10.4667m    -10.3745m  
  607.00000p    -11.2154m    -10.8313m    -10.5045m    -10.4126m  
  608.00000p    -11.2511m    -10.8686m    -10.5423m    -10.4506m  
  609.00000p    -11.2869m    -10.9059m    -10.5801m    -10.4886m  
  610.00000p    -11.3227m    -10.9433m    -10.6179m    -10.5267m  
  611.00000p    -11.3584m    -10.9806m    -10.6557m    -10.5647m  
  612.00000p    -11.3942m    -11.0179m    -10.6934m    -10.6027m  
  613.00000p    -11.4299m    -11.0552m    -10.7312m    -10.6408m  
  614.00000p    -11.4657m    -11.0925m    -10.7690m    -10.6788m  
  615.00000p    -11.5015m    -11.1299m    -10.8068m    -10.7169m  
  616.00000p    -11.5372m    -11.1672m    -10.8446m    -10.7549m  
  617.00000p    -11.5730m    -11.2045m    -10.8824m    -10.7929m  
  618.00000p    -11.6087m    -11.2418m    -10.9202m    -10.8310m  
  619.00000p    -11.6445m    -11.2791m    -10.9580m    -10.8690m  
  620.00000p    -11.6802m    -11.3164m    -10.9958m    -10.9070m  
  621.00000p    -11.7160m    -11.3538m    -11.0336m    -10.9451m  
  622.00000p    -11.7518m    -11.3911m    -11.0713m    -10.9831m  
  623.00000p    -11.7875m    -11.4284m    -11.1091m    -11.0211m  
  624.00000p    -11.8233m    -11.4657m    -11.1469m    -11.0592m  
  625.00000p    -11.8590m    -11.5030m    -11.1847m    -11.0972m  
  626.00000p    -11.8948m    -11.5404m    -11.2225m    -11.1352m  
  627.00000p    -11.9305m    -11.5777m    -11.2603m    -11.1733m  
  628.00000p    -11.9663m    -11.6150m    -11.2981m    -11.2113m  
  629.00000p    -12.0021m    -11.6523m    -11.3359m    -11.2493m  
  630.00000p    -12.0378m    -11.6896m    -11.3737m    -11.2874m  
  631.00000p    -12.0736m    -11.7270m    -11.4114m    -11.3254m  
  632.00000p    -12.1093m    -11.7643m    -11.4492m    -11.3634m  
  633.00000p    -12.1451m    -11.8016m    -11.4870m    -11.4015m  
  634.00000p    -12.1809m    -11.8389m    -11.5248m    -11.4395m  
  635.00000p    -12.2166m    -11.8762m    -11.5626m    -11.4775m  
  636.00000p    -12.2524m    -11.9136m    -11.6004m    -11.5156m  
  637.00000p    -12.2881m    -11.9509m    -11.6382m    -11.5536m  
  638.00000p    -12.3239m    -11.9882m    -11.6760m    -11.5916m  
  639.00000p    -12.3596m    -12.0255m    -11.7138m    -11.6297m  
  640.00000p    -12.3954m    -12.0628m    -11.7515m    -11.6677m  
  641.00000p    -12.4312m    -12.1002m    -11.7893m    -11.7057m  
  642.00000p    -12.4669m    -12.1375m    -11.8271m    -11.7438m  
  643.00000p    -12.5027m    -12.1748m    -11.8649m    -11.7818m  
  644.00000p    -12.5384m    -12.2121m    -11.9027m    -11.8199m  
  645.00000p    -12.5742m    -12.2494m    -11.9405m    -11.8579m  
  646.00000p    -12.6100m    -12.2867m    -11.9783m    -11.8959m  
  647.00000p    -12.6457m    -12.3241m    -12.0161m    -11.9340m  
  648.00000p    -12.6815m    -12.3614m    -12.0539m    -11.9720m  
  649.00000p    -12.7212m    -12.4032m    -12.0964m    -12.0147m  
  650.00000p    -12.7620m    -12.4462m    -12.1402m    -12.0585m  
  651.00000p    -12.8028m    -12.4893m    -12.1841m    -12.1024m  
  652.00000p    -12.8436m    -12.5323m    -12.2279m    -12.1463m  
  653.00000p    -12.8844m    -12.5753m    -12.2717m    -12.1902m  
  654.00000p    -12.9252m    -12.6183m    -12.3155m    -12.2341m  
  655.00000p    -12.9660m    -12.6613m    -12.3593m    -12.2780m  
  656.00000p    -13.0068m    -12.7044m    -12.4032m    -12.3219m  
  657.00000p    -13.0477m    -12.7474m    -12.4470m    -12.3658m  
  658.00000p    -13.0885m    -12.7904m    -12.4908m    -12.4096m  
  659.00000p    -13.1293m    -12.8334m    -12.5346m    -12.4535m  
  660.00000p    -13.1701m    -12.8764m    -12.5784m    -12.4974m  
  661.00000p    -13.2109m    -12.9195m    -12.6223m    -12.5413m  
  662.00000p    -13.2517m    -12.9625m    -12.6661m    -12.5852m  
  663.00000p    -13.2925m    -13.0055m    -12.7099m    -12.6291m  
  664.00000p    -13.3333m    -13.0485m    -12.7537m    -12.6730m  
  665.00000p    -13.3741m    -13.0915m    -12.7975m    -12.7169m  
  666.00000p    -13.4149m    -13.1346m    -12.8414m    -12.7607m  
  667.00000p    -13.4557m    -13.1776m    -12.8852m    -12.8046m  
  668.00000p    -13.4965m    -13.2206m    -12.9290m    -12.8485m  
  669.00000p    -13.5373m    -13.2636m    -12.9728m    -12.8924m  
  670.00000p    -13.5781m    -13.3066m    -13.0166m    -12.9363m  
  671.00000p    -13.6189m    -13.3497m    -13.0605m    -12.9802m  
  672.00000p    -13.6597m    -13.3927m    -13.1043m    -13.0241m  
  673.00000p    -13.7005m    -13.4357m    -13.1481m    -13.0680m  
  674.00000p    -13.7413m    -13.4787m    -13.1919m    -13.1118m  
  675.00000p    -13.7821m    -13.5217m    -13.2357m    -13.1557m  
  676.00000p    -13.8229m    -13.5648m    -13.2796m    -13.1996m  
  677.00000p    -13.8637m    -13.6078m    -13.3234m    -13.2435m  
  678.00000p    -13.9045m    -13.6508m    -13.3672m    -13.2874m  
  679.00000p    -13.9453m    -13.6938m    -13.4110m    -13.3313m  
  680.00000p    -13.9861m    -13.7368m    -13.4548m    -13.3752m  
  681.00000p    -14.0269m    -13.7799m    -13.4987m    -13.4191m  
  682.00000p    -14.0677m    -13.8229m    -13.5425m    -13.4629m  
  683.00000p    -14.1086m    -13.8659m    -13.5863m    -13.5068m  
  684.00000p    -14.1494m    -13.9089m    -13.6301m    -13.5507m  
  685.00000p    -14.1902m    -13.9519m    -13.6739m    -13.5946m  
  686.00000p    -14.2310m    -13.9950m    -13.7178m    -13.6385m  
  687.00000p    -14.2718m    -14.0380m    -13.7616m    -13.6824m  
  688.00000p    -14.3126m    -14.0810m    -13.8054m    -13.7263m  
  689.00000p    -14.3534m    -14.1240m    -13.8492m    -13.7702m  
  690.00000p    -14.3942m    -14.1670m    -13.8930m    -13.8141m  
  691.00000p    -14.4350m    -14.2101m    -13.9369m    -13.8579m  
  692.00000p    -14.4758m    -14.2531m    -13.9807m    -13.9018m  
  693.00000p    -14.5166m    -14.2961m    -14.0245m    -13.9457m  
  694.00000p    -14.5574m    -14.3391m    -14.0683m    -13.9896m  
  695.00000p    -14.5982m    -14.3821m    -14.1121m    -14.0335m  
  696.00000p    -14.6390m    -14.4252m    -14.1560m    -14.0774m  
  697.00000p    -14.6798m    -14.4682m    -14.1998m    -14.1213m  
  698.00000p    -14.7206m    -14.5112m    -14.2436m    -14.1652m  
  699.00000p    -14.7621m    -14.5550m    -14.2885m    -14.2106m  
  700.00000p    -14.8039m    -14.5990m    -14.3338m    -14.2564m  
  701.00000p    -14.8456m    -14.6430m    -14.3790m    -14.3022m  
  702.00000p    -14.8873m    -14.6870m    -14.4243m    -14.3481m  
  703.00000p    -14.9290m    -14.7310m    -14.4695m    -14.3939m  
  704.00000p    -14.9708m    -14.7750m    -14.5147m    -14.4397m  
  705.00000p    -15.0125m    -14.8190m    -14.5600m    -14.4856m  
  706.00000p    -15.0542m    -14.8630m    -14.6052m    -14.5314m  
  707.00000p    -15.0959m    -14.9070m    -14.6505m    -14.5772m  
  708.00000p    -15.1376m    -14.9511m    -14.6957m    -14.6231m  
  709.00000p    -15.1794m    -14.9951m    -14.7409m    -14.6689m  
  710.00000p    -15.2211m    -15.0391m    -14.7862m    -14.7147m  
  711.00000p    -15.2628m    -15.0831m    -14.8314m    -14.7606m  
  712.00000p    -15.3045m    -15.1271m    -14.8767m    -14.8064m  
  713.00000p    -15.3463m    -15.1711m    -14.9219m    -14.8522m  
  714.00000p    -15.3880m    -15.2151m    -14.9671m    -14.8981m  
  715.00000p    -15.4297m    -15.2591m    -15.0124m    -14.9439m  
  716.00000p    -15.4714m    -15.3031m    -15.0576m    -14.9897m  
  717.00000p    -15.5132m    -15.3471m    -15.1029m    -15.0356m  
  718.00000p    -15.5549m    -15.3911m    -15.1481m    -15.0814m  
  719.00000p    -15.5966m    -15.4351m    -15.1933m    -15.1272m  
  720.00000p    -15.6383m    -15.4791m    -15.2386m    -15.1731m  
  721.00000p    -15.6800m    -15.5231m    -15.2838m    -15.2189m  
  722.00000p    -15.7218m    -15.5671m    -15.3291m    -15.2647m  
  723.00000p    -15.7635m    -15.6111m    -15.3743m    -15.3106m  
  724.00000p    -15.8052m    -15.6552m    -15.4195m    -15.3564m  
  725.00000p    -15.8469m    -15.6992m    -15.4648m    -15.4022m  
  726.00000p    -15.8887m    -15.7432m    -15.5100m    -15.4481m  
  727.00000p    -15.9304m    -15.7872m    -15.5553m    -15.4939m  
  728.00000p    -15.9721m    -15.8312m    -15.6005m    -15.5397m  
  729.00000p    -16.0138m    -15.8752m    -15.6457m    -15.5855m  
  730.00000p    -16.0555m    -15.9192m    -15.6910m    -15.6314m  
  731.00000p    -16.0973m    -15.9632m    -15.7362m    -15.6772m  
  732.00000p    -16.1390m    -16.0072m    -15.7815m    -15.7230m  
  733.00000p    -16.1807m    -16.0512m    -15.8267m    -15.7689m  
  734.00000p    -16.2224m    -16.0952m    -15.8719m    -15.8147m  
  735.00000p    -16.2642m    -16.1392m    -15.9172m    -15.8605m  
  736.00000p    -16.3059m    -16.1832m    -15.9624m    -15.9064m  
  737.00000p    -16.3476m    -16.2272m    -16.0077m    -15.9522m  
  738.00000p    -16.3893m    -16.2712m    -16.0529m    -15.9980m  
  739.00000p    -16.4311m    -16.3153m    -16.0981m    -16.0439m  
  740.00000p    -16.4728m    -16.3593m    -16.1434m    -16.0897m  
  741.00000p    -16.5145m    -16.4033m    -16.1886m    -16.1355m  
  742.00000p    -16.5562m    -16.4473m    -16.2339m    -16.1814m  
  743.00000p    -16.5979m    -16.4913m    -16.2791m    -16.2272m  
  744.00000p    -16.6397m    -16.5353m    -16.3243m    -16.2730m  
  745.00000p    -16.6814m    -16.5793m    -16.3696m    -16.3189m  
  746.00000p    -16.7231m    -16.6233m    -16.4148m    -16.3647m  
  747.00000p    -16.7648m    -16.6673m    -16.4601m    -16.4105m  
  748.00000p    -16.8066m    -16.7113m    -16.5053m    -16.4564m  
  749.00000p    -16.8497m    -16.7570m    -16.5523m    -16.5040m  
  750.00000p    -16.8933m    -16.8032m    -16.5997m    -16.5522m  
  751.00000p    -16.9369m    -16.8493m    -16.6472m    -16.6004m  
  752.00000p    -16.9804m    -16.8954m    -16.6946m    -16.6486m  
  753.00000p    -17.0240m    -16.9416m    -16.7421m    -16.6968m  
  754.00000p    -17.0676m    -16.9877m    -16.7895m    -16.7449m  
  755.00000p    -17.1111m    -17.0339m    -16.8370m    -16.7931m  
  756.00000p    -17.1547m    -17.0800m    -16.8844m    -16.8413m  
  757.00000p    -17.1983m    -17.1262m    -16.9319m    -16.8895m  
  758.00000p    -17.2418m    -17.1723m    -16.9793m    -16.9376m  
  759.00000p    -17.2854m    -17.2185m    -17.0268m    -16.9858m  
  760.00000p    -17.3290m    -17.2646m    -17.0742m    -17.0340m  
  761.00000p    -17.3725m    -17.3108m    -17.1217m    -17.0822m  
  762.00000p    -17.4161m    -17.3569m    -17.1691m    -17.1303m  
  763.00000p    -17.4597m    -17.4030m    -17.2166m    -17.1785m  
  764.00000p    -17.5032m    -17.4492m    -17.2640m    -17.2267m  
  765.00000p    -17.5468m    -17.4953m    -17.3115m    -17.2749m  
  766.00000p    -17.5904m    -17.5415m    -17.3589m    -17.3230m  
  767.00000p    -17.6339m    -17.5876m    -17.4064m    -17.3712m  
  768.00000p    -17.6775m    -17.6338m    -17.4538m    -17.4194m  
  769.00000p    -17.7211m    -17.6799m    -17.5013m    -17.4676m  
  770.00000p    -17.7646m    -17.7261m    -17.5487m    -17.5157m  
  771.00000p    -17.8082m    -17.7722m    -17.5962m    -17.5639m  
  772.00000p    -17.8518m    -17.8184m    -17.6436m    -17.6121m  
  773.00000p    -17.8953m    -17.8645m    -17.6911m    -17.6603m  
  774.00000p    -17.9389m    -17.9106m    -17.7385m    -17.7084m  
[...]
  729.00000p    -25.0567m    -25.0678m    -25.0980m    -25.0634m  
  730.00000p    -25.0927m    -25.1038m    -25.1340m    -25.0993m  
  731.00000p    -25.1286m    -25.1397m    -25.1700m    -25.1352m  
  732.00000p    -25.1646m    -25.1757m    -25.2060m    -25.1712m  
  733.00000p    -25.2006m    -25.2117m    -25.2420m    -25.2071m  
  734.00000p    -25.2365m    -25.2476m    -25.2780m    -25.2430m  
  735.00000p    -25.2725m    -25.2836m    -25.3140m    -25.2789m  
  736.00000p    -25.3085m    -25.3196m    -25.3500m    -25.3148m  
  737.00000p    -25.3445m    -25.3555m    -25.3860m    -25.3507m  
  738.00000p    -25.3804m    -25.3915m    -25.4220m    -25.3866m  
  739.00000p    -25.4164m    -25.4275m    -25.4580m    -25.4225m  
  740.00000p    -25.4524m    -25.4634m    -25.4940m    -25.4584m  
  741.00000p    -25.4883m    -25.4994m    -25.5300m    -25.4943m  
  742.00000p    -25.5243m    -25.5353m    -25.5660m    -25.5302m  
  743.00000p    -25.5603m    -25.5713m    -25.6020m    -25.5661m  
  744.00000p    -25.5963m    -25.6073m    -25.6380m    -25.6020m  
  745.00000p    -25.6322m    -25.6432m    -25.6740m    -25.6379m  
  746.00000p    -25.6682m    -25.6792m    -25.7100m    -25.6739m  
  747.00000p    -25.7042m    -25.7152m    -25.7460m    -25.7098m  
  748.00000p    -25.7401m    -25.7511m    -25.7820m    -25.7457m  
  749.00000p    -25.7763m    -25.7873m    -25.8181m    -25.7818m  
  750.00000p    -25.8126m    -25.8236m    -25.8544m    -25.8179m  
  751.00000p    -25.8488m    -25.8598m    -25.8906m    -25.8541m  
  752.00000p    -25.8850m    -25.8961m    -25.9268m    -25.8902m  
  753.00000p    -25.9213m    -25.9323m    -25.9631m    -25.9263m  
  754.00000p    -25.9575m    -25.9686m    -25.9993m    -25.9625m  
  755.00000p    -25.9938m    -26.0048m    -26.0355m    -25.9986m  
  756.00000p    -26.0300m    -26.0411m    -26.0718m    -26.0348m  
  757.00000p    -26.0663m    -26.0773m    -26.1080m    -26.0709m  
  758.00000p    -26.1025m    -26.1136m    -26.1442m    -26.1071m  
  759.00000p    -26.1387m    -26.1498m    -26.1805m    -26.1432m  
  760.00000p    -26.1750m    -26.1861m    -26.2167m    -26.1794m  
  761.00000p    -26.2112m    -26.2223m    -26.2529m    -26.2155m  
  762.00000p    -26.2475m    -26.2586m    -26.2892m    -26.2517m  
  763.00000p    -26.2837m    -26.2948m    -26.3254m    -26.2878m  
  764.00000p    -26.3200m    -26.3310m    -26.3616m    -26.3240m  
  765.00000p    -26.3562m    -26.3673m    -26.3979m    -26.3601m  
  766.00000p    -26.3924m    -26.4035m    -26.4341m    -26.3962m  
  767.00000p    -26.4287m    -26.4398m    -26.4703m    -26.4324m  
  768.00000p    -26.4649m    -26.4760m    -26.5066m    -26.4685m  
  769.00000p    -26.5012m    -26.5123m    -26.5428m    -26.5047m  
  770.00000p    -26.5374m    -26.5485m    -26.5791m    -26.5408m  
  771.00000p    -26.5736m    -26.5848m    -26.6153m    -26.5770m  
  772.00000p    -26.6099m    -26.6210m    -26.6515m    -26.6131m  
  773.00000p    -26.6461m    -26.6573m    -26.6878m    -26.6493m  
  774.00000p    -26.6824m    -26.6935m    -26.7240m    -26.6854m  
  775.00000p    -26.7186m    -26.7298m    -26.7602m    -26.7216m  
  776.00000p    -26.7549m    -26.7660m    -26.7965m    -26.7577m  
  777.00000p    -26.7911m    -26.8023m    -26.8327m    -26.7938m  
  778.00000p    -26.8273m    -26.8385m    -26.8689m    -26.8300m  
  779.00000p    -26.8636m    -26.8748m    -26.9052m    -26.8661m  
  780.00000p    -26.8998m    -26.9110m    -26.9414m    -26.9023m  
  781.00000p    -26.9361m    -26.9473m    -26.9776m    -26.9384m  
  782.00000p    -26.9723m    -26.9835m    -27.0139m    -26.9746m  
  783.00000p    -27.0085m    -27.0198m    -27.0501m    -27.0107m  
  784.00000p    -27.0448m    -27.0560m    -27.0863m    -27.0469m  
  785.00000p    -27.0810m    -27.0923m    -27.1226m    -27.0830m  
  786.00000p    -27.1173m    -27.1285m    -27.1588m    -27.1192m  
  787.00000p    -27.1535m    -27.1648m    -27.1950m    -27.1553m  
  788.00000p    -27.1898m    -27.2010m    -27.2313m    -27.1914m  
  789.00000p    -27.2260m    -27.2373m    -27.2675m    -27.2276m  
  790.00000p    -27.2622m    -27.2735m    -27.3037m    -27.2637m  
  791.00000p    -27.2985m    -27.3098m    -27.3400m    -27.2999m  
  792.00000p    -27.3347m    -27.3460m    -27.3762m    -27.3360m  
  793.00000p    -27.3710m    -27.3823m    -27.4124m    -27.3722m  
  794.00000p    -27.4072m    -27.4185m    -27.4487m    -27.4083m  
  795.00000p    -27.4434m    -27.4548m    -27.4849m    -27.4445m  
  796.00000p    -27.4797m    -27.4910m    -27.5211m    -27.4806m  
  797.00000p    -27.5159m    -27.5273m    -27.5574m    -27.5168m  
  798.00000p    -27.5522m    -27.5635m    -27.5936m    -27.5529m  
  799.00000p    -27.5886m    -27.6000m    -27.6300m    -27.5893m  
  800.00000p    -27.6252m    -27.6365m    -27.6666m    -27.6258m  
  801.00000p    -27.6617m    -27.6729m    -27.7031m    -27.6623m  
  802.00000p    -27.6983m    -27.7094m    -27.7396m    -27.6988m  
  803.00000p    -27.7348m    -27.7459m    -27.7761m    -27.7352m  
  804.00000p    -27.7714m    -27.7824m    -27.8126m    -27.7717m  
  805.00000p    -27.8079m    -27.8189m    -27.8491m    -27.8082m  
  806.00000p    -27.8444m    -27.8554m    -27.8856m    -27.8447m  
  807.00000p    -27.8810m    -27.8919m    -27.9221m    -27.8812m  
  808.00000p    -27.9175m    -27.9284m    -27.9586m    -27.9177m  
  809.00000p    -27.9541m    -27.9649m    -27.9951m    -27.9541m  
  810.00000p    -27.9906m    -28.0014m    -28.0316m    -27.9906m  
  811.00000p    -28.0272m    -28.0379m    -28.0681m    -28.0271m  
  812.00000p    -28.0637m    -28.0744m    -28.1046m    -28.0636m  
  813.00000p    -28.1002m    -28.1109m    -28.1411m    -28.1001m  
  814.00000p    -28.1368m    -28.1474m    -28.1776m    -28.1366m  
  815.00000p    -28.1733m    -28.1839m    -28.2141m    -28.1730m  
  816.00000p    -28.2099m    -28.2204m    -28.2506m    -28.2095m  
  817.00000p    -28.2464m    -28.2569m    -28.2871m    -28.2460m  
  818.00000p    -28.2829m    -28.2934m    -28.3236m    -28.2825m  
  819.00000p    -28.3195m    -28.3299m    -28.3601m    -28.3190m  
  820.00000p    -28.3560m    -28.3664m    -28.3966m    -28.3555m  
  821.00000p    -28.3926m    -28.4028m    -28.4331m    -28.3919m  
  822.00000p    -28.4291m    -28.4393m    -28.4696m    -28.4284m  
  823.00000p    -28.4657m    -28.4758m    -28.5061m    -28.4649m  
  824.00000p    -28.5022m    -28.5123m    -28.5426m    -28.5014m  
  825.00000p    -28.5387m    -28.5488m    -28.5791m    -28.5379m  
  826.00000p    -28.5753m    -28.5853m    -28.6156m    -28.5744m  
  827.00000p    -28.6118m    -28.6218m    -28.6521m    -28.6108m  
  828.00000p    -28.6484m    -28.6583m    -28.6886m    -28.6473m  
  829.00000p    -28.6849m    -28.6948m    -28.7251m    -28.6838m  
  830.00000p    -28.7214m    -28.7313m    -28.7616m    -28.7203m  
  831.00000p    -28.7580m    -28.7678m    -28.7981m    -28.7568m  
  832.00000p    -28.7945m    -28.8043m    -28.8346m    -28.7933m  
  833.00000p    -28.8311m    -28.8408m    -28.8711m    -28.8297m  
  834.00000p    -28.8676m    -28.8773m    -28.9076m    -28.8662m  
  835.00000p    -28.9042m    -28.9138m    -28.9441m    -28.9027m  
  836.00000p    -28.9407m    -28.9503m    -28.9806m    -28.9392m  
  837.00000p    -28.9772m    -28.9868m    -29.0171m    -28.9757m  
  838.00000p    -29.0138m    -29.0233m    -29.0536m    -29.0122m  
  839.00000p    -29.0503m    -29.0598m    -29.0901m    -29.0486m  
  840.00000p    -29.0869m    -29.0963m    -29.1266m    -29.0851m  
  841.00000p    -29.1234m    -29.1328m    -29.1631m    -29.1216m  
  842.00000p    -29.1600m    -29.1692m    -29.1996m    -29.1581m  
  843.00000p    -29.1965m    -29.2057m    -29.2361m    -29.1946m  
  844.00000p    -29.2330m    -29.2422m    -29.2726m    -29.2310m  
  845.00000p    -29.2696m    -29.2787m    -29.3091m    -29.2675m  
  846.00000p    -29.3061m    -29.3152m    -29.3456m    -29.3040m  
  847.00000p    -29.3427m    -29.3517m    -29.3821m    -29.3405m  
  848.00000p    -29.3792m    -29.3882m    -29.4186m    -29.3770m  
  849.00000p    -29.4160m    -29.4249m    -29.4554m    -29.4137m  
  850.00000p    -29.4528m    -29.4617m    -29.4922m    -29.4504m  
  851.00000p    -29.4896m    -29.4985m    -29.5290m    -29.4871m  
  852.00000p    -29.5264m    -29.5353m    -29.5658m    -29.5238m  
  853.00000p    -29.5632m    -29.5721m    -29.6026m    -29.5606m  
  854.00000p    -29.6000m    -29.6089m    -29.6394m    -29.5973m  
  855.00000p    -29.6368m    -29.6456m    -29.6763m    -29.6340m  
  856.00000p    -29.6736m    -29.6824m    -29.7131m    -29.6708m  
  857.00000p    -29.7104m    -29.7192m    -29.7499m    -29.7075m  
  858.00000p    -29.7472m    -29.7560m    -29.7867m    -29.7442m  
  859.00000p    -29.7840m    -29.7928m    -29.8235m    -29.7809m  
  860.00000p    -29.8208m    -29.8296m    -29.8603m    -29.8177m  
  861.00000p    -29.8576m    -29.8664m    -29.8972m    -29.8544m  
  862.00000p    -29.8944m    -29.9031m    -29.9340m    -29.8911m  
  863.00000p    -29.9312m    -29.9399m    -29.9708m    -29.9279m  
  864.00000p    -29.9680m    -29.9767m    -30.0076m    -29.9646m  
  865.00000p    -30.0048m    -30.0135m    -30.0444m    -30.0013m  
  866.00000p    -30.0416m    -30.0503m    -30.0813m    -30.0380m  
  867.00000p    -30.0784m    -30.0871m    -30.1181m    -30.0748m  
  868.00000p    -30.1152m    -30.1238m    -30.1549m    -30.1115m  
  869.00000p    -30.1520m    -30.1606m    -30.1917m    -30.1482m  
  870.00000p    -30.1888m    -30.1974m    -30.2285m    -30.1849m  
  871.00000p    -30.2256m    -30.2342m    -30.2653m    -30.2217m  
  872.00000p    -30.2624m    -30.2710m    -30.3022m    -30.2584m  
  873.00000p    -30.2992m    -30.3078m    -30.3390m    -30.2951m  
  874.00000p    -30.3360m    -30.3446m    -30.3758m    -30.3319m  
  875.00000p    -30.3728m    -30.3813m    -30.4126m    -30.3686m  
  876.00000p    -30.4096m    -30.4181m    -30.4494m    -30.4053m  
  877.00000p    -30.4465m    -30.4549m    -30.4862m    -30.4420m  
  878.00000p    -30.4833m    -30.4917m    -30.5231m    -30.4788m  
  879.00000p    -30.5201m    -30.5285m    -30.5599m    -30.5155m  
  880.00000p    -30.5569m    -30.5653m    -30.5967m    -30.5522m  
  881.00000p    -30.5937m    -30.6021m    -30.6335m    -30.5890m  
  882.00000p    -30.6305m    -30.6388m    -30.6703m    -30.6257m  
  883.00000p    -30.6673m    -30.6756m    -30.7071m    -30.6624m  
  884.00000p    -30.7041m    -30.7124m    -30.7440m    -30.6991m  
  885.00000p    -30.7409m    -30.7492m    -30.7808m    -30.7359m  
  886.00000p    -30.7777m    -30.7860m    -30.8176m    -30.7726m  
  887.00000p    -30.8145m    -30.8228m    -30.8544m    -30.8093m  
  888.00000p    -30.8513m    -30.8595m    -30.8912m    -30.8461m  
  889.00000p    -30.8881m    -30.8963m    -30.9280m    -30.8828m  
  890.00000p    -30.9249m    -30.9331m    -30.9649m    -30.9195m  
  891.00000p    -30.9617m    -30.9699m    -31.0017m    -30.9562m  
  892.00000p    -30.9985m    -31.0067m    -31.0385m    -30.9930m  
  893.00000p    -31.0353m    -31.0435m    -31.0753m    -31.0297m  
  894.00000p    -31.0721m    -31.0803m    -31.1121m    -31.0664m  
  895.00000p    -31.1089m    -31.1170m    -31.1490m    -31.1032m  
  896.00000p    -31.1457m    -31.1538m    -31.1858m    -31.1399m  
  897.00000p    -31.1825m    -31.1906m    -31.2226m    -31.1766m  
  898.00000p    -31.2193m    -31.2274m    -31.2594m    -31.2133m  
  899.00000p    -31.2563m    -31.2644m    -31.2964m    -31.2501m  
  900.00000p    -31.2933m    -31.3015m    -31.3335m    -31.2869m  
  901.00000p    -31.3304m    -31.3386m    -31.3705m    -31.3237m  
  902.00000p    -31.3674m    -31.3756m    -31.4076m    -31.3605m  
  903.00000p    -31.4045m    -31.4127m    -31.4446m    -31.3973m  
  904.00000p    -31.4415m    -31.4498m    -31.4817m    -31.4341m  
  905.00000p    -31.4785m    -31.4868m    -31.5187m    -31.4709m  
  906.00000p    -31.5156m    -31.5239m    -31.5558m    -31.5077m  
  907.00000p    -31.5526m    -31.5610m    -31.5928m    -31.5444m  
  908.00000p    -31.5896m    -31.5981m    -31.6299m    -31.5812m  
  909.00000p    -31.6267m    -31.6351m    -31.6669m    -31.6180m  
  910.00000p    -31.6637m    -31.6722m    -31.7040m    -31.6548m  
  911.00000p    -31.7007m    -31.7093m    -31.7410m    -31.6916m  
  912.00000p    -31.7378m    -31.7464m    -31.7781m    -31.7284m  
  913.00000p    -31.7748m    -31.7834m    -31.8151m    -31.7652m  
  914.00000p    -31.8118m    -31.8205m    -31.8522m    -31.8020m  
  915.00000p    -31.8489m    -31.8576m    -31.8892m    -31.8388m  
  916.00000p    -31.8859m    -31.8947m    -31.9263m    -31.8756m  
  917.00000p    -31.9230m    -31.9317m    -31.9633m    -31.9124m  
  918.00000p    -31.9600m    -31.9688m    -32.0004m    -31.9492m  
  919.00000p    -31.9970m    -32.0059m    -32.0374m    -31.9859m  
  920.00000p    -32.0341m    -32.0430m    -32.0745m    -32.0227m  
  921.00000p    -32.0711m    -32.0800m    -32.1115m    -32.0595m  
  922.00000p    -32.1081m    -32.1171m    -32.1486m    -32.0963m  
  923.00000p    -32.1452m    -32.1542m    -32.1856m    -32.1331m  
  924.00000p    -32.1822m    -32.1913m    -32.2227m    -32.1699m  
  925.00000p    -32.2192m    -32.2283m    -32.2597m    -32.2067m  
  926.00000p    -32.2563m    -32.2654m    -32.2968m    -32.2435m  
  927.00000p    -32.2933m    -32.3025m    -32.3338m    -32.2803m  
  928.00000p    -32.3303m    -32.3395m    -32.3709m    -32.3171m  
  929.00000p    -32.3674m    -32.3766m    -32.4079m    -32.3539m  
  930.00000p    -32.4044m    -32.4137m    -32.4450m    -32.3907m  
  931.00000p    -32.4415m    -32.4508m    -32.4820m    -32.4274m  
  932.00000p    -32.4785m    -32.4878m    -32.5191m    -32.4642m  
  933.00000p    -32.5155m    -32.5249m    -32.5561m    -32.5010m  
  934.00000p    -32.5526m    -32.5620m    -32.5932m    -32.5378m  
  935.00000p    -32.5896m    -32.5991m    -32.6302m    -32.5746m  
  936.00000p    -32.6266m    -32.6361m    -32.6673m    -32.6114m  
  937.00000p    -32.6637m    -32.6732m    -32.7043m    -32.6482m  
  938.00000p    -32.7007m    -32.7103m    -32.7414m    -32.6850m  
  939.00000p    -32.7377m    -32.7474m    -32.7785m    -32.7218m  
  940.00000p    -32.7748m    -32.7844m    -32.8155m    -32.7586m  
  941.00000p    -32.8118m    -32.8215m    -32.8526m    -32.7954m  
  942.00000p    -32.8488m    -32.8586m    -32.8896m    -32.8322m  
  943.00000p    -32.8859m    -32.8957m    -32.9267m    -32.8689m  
  944.00000p    -32.9229m    -32.9327m    -32.9637m    -32.9057m  
  945.00000p    -32.9599m    -32.9698m    -33.0008m    -32.9425m  
  946.00000p    -32.9970m    -33.0069m    -33.0378m    -32.9793m  
  947.00000p    -33.0340m    -33.0440m    -33.0749m    -33.0161m  
  948.00000p    -33.0711m    -33.0810m    -33.1119m    -33.0529m  
  949.00000p    -33.1083m    -33.1182m    -33.1490m    -33.0897m  
  950.00000p    -33.1455m    -33.1554m    -33.1861m    -33.1264m  
  951.00000p    -33.1828m    -33.1927m    -33.2231m    -33.1632m  
  952.00000p    -33.2201m    -33.2299m    -33.2602m    -33.1999m  
  953.00000p    -33.2573m    -33.2671m    -33.2973m    -33.2366m  
  954.00000p    -33.2946m    -33.3043m    -33.3344m    -33.2734m  
  955.00000p    -33.3318m    -33.3415m    -33.3715m    -33.3101m  
  956.00000p    -33.3691m    -33.3788m    -33.4085m    -33.3469m  
  957.00000p    -33.4064m    -33.4160m    -33.4456m    -33.3836m  
  958.00000p    -33.4436m    -33.4532m    -33.4827m    -33.4204m  
  959.00000p    -33.4809m    -33.4904m    -33.5198m    -33.4571m  
  960.00000p    -33.5181m    -33.5276m    -33.5569m    -33.4939m  
  961.00000p    -33.5554m    -33.5649m    -33.5939m    -33.5306m  
  962.00000p    -33.5927m    -33.6021m    -33.6310m    -33.5674m  
  963.00000p    -33.6299m    -33.6393m    -33.6681m    -33.6041m  
  964.00000p    -33.6672m    -33.6765m    -33.7052m    -33.6409m  
  965.00000p    -33.7045m    -33.7137m    -33.7422m    -33.6776m  
  966.00000p    -33.7417m    -33.7510m    -33.7793m    -33.7144m  
  967.00000p    -33.7790m    -33.7882m    -33.8164m    -33.7511m  
  968.00000p    -33.8162m    -33.8254m    -33.8535m    -33.7878m  
  969.00000p    -33.8535m    -33.8626m    -33.8906m    -33.8246m  
  970.00000p    -33.8908m    -33.8998m    -33.9276m    -33.8613m  
  971.00000p    -33.9280m    -33.9371m    -33.9647m    -33.8981m  
  972.00000p    -33.9653m    -33.9743m    -34.0018m    -33.9348m  
  973.00000p    -34.0026m    -34.0115m    -34.0389m    -33.9716m  
  974.00000p    -34.0398m    -34.0487m    -34.0760m    -34.0083m  
  975.00000p    -34.0771m    -34.0860m    -34.1130m    -34.0451m  
  976.00000p    -34.1143m    -34.1232m    -34.1501m    -34.0818m  
  977.00000p    -34.1516m    -34.1604m    -34.1872m    -34.1186m  
  978.00000p    -34.1889m    -34.1976m    -34.2243m    -34.1553m  
  979.00000p    -34.2261m    -34.2348m    -34.2613m    -34.1921m  
  980.00000p    -34.2634m    -34.2721m    -34.2984m    -34.2288m  
  981.00000p    -34.3006m    -34.3093m    -34.3355m    -34.2655m  
  982.00000p    -34.3379m    -34.3465m    -34.3726m    -34.3023m  
  983.00000p    -34.3752m    -34.3837m    -34.4097m    -34.3390m  
  984.00000p    -34.4124m    -34.4209m    -34.4467m    -34.3758m  
  985.00000p    -34.4497m    -34.4582m    -34.4838m    -34.4125m  
  986.00000p    -34.4870m    -34.4954m    -34.5209m    -34.4493m  
  987.00000p    -34.5242m    -34.5326m    -34.5580m    -34.4860m  
  988.00000p    -34.5615m    -34.5698m    -34.5951m    -34.5228m  
  989.00000p    -34.5987m    -34.6070m    -34.6321m    -34.5595m  
  990.00000p    -34.6360m    -34.6443m    -34.6692m    -34.5963m  
  991.00000p    -34.6733m    -34.6815m    -34.7063m    -34.6330m  
  992.00000p    -34.7105m    -34.7187m    -34.7434m    -34.6698m  
  993.00000p    -34.7478m    -34.7559m    -34.7805m    -34.7065m  
  994.00000p    -34.7850m    -34.7931m    -34.8175m    -34.7433m  
  995.00000p    -34.8223m    -34.8304m    -34.8546m    -34.7800m  
  996.00000p    -34.8596m    -34.8676m    -34.8917m    -34.8167m  
  997.00000p    -34.8968m    -34.9048m    -34.9288m    -34.8535m  
  998.00000p    -34.9341m    -34.9420m    -34.9658m    -34.8902m  
  999.00000p    -34.9714m    -34.9793m    -35.0029m    -34.9270m  
    1.00000n    -35.0086m    -35.0165m    -35.0400m    -34.9637m  
y

          ***** job concluded
1****** HSPICE -- D-2010.03-SP1 32-BIT (May 26 2010) winnt ******               
 ******  
 *a bus interconnect circuit with 34 bus line 16 segment.

  ******  job statistics summary tnom=  25.000 temp=  25.000 *****

  ******  HSPICE Threads Information  ******

  Command Line Threads Count                  :     1
  Available CPU Count                         :     8
  Actual Model Evaluation(Load) Threads Count :     1
  Actual Solver Threads Count                 :     1


  ******  Circuit Statistics  ******
  # nodes       =    1123 # elements   =   19676
  # resistors   =     579 # capacitors =    9569 # inductors   =     544
  # mutual_inds =    8976 # vccs       =       0 # vcvs        =       0
  # cccs        =       0 # ccvs       =       0 # volt_srcs   =       0
  # curr_srcs   =       8 # diodes     =       0 # bjts        =       0
  # jfets       =       0 # mosfets    =       0 # U elements  =       0
  # T elements  =       0 # W elements =       0 # B elements  =       0
  # S elements  =       0 # P elements =       0 # va device   =       0


  ******  Runtime Statistics (seconds)  ******

  analysis           time    # points   tot. iter  conv.iter
  op point           0.10           1           3
  transient          0.26        1001          48          24 rev=         0
  readin             4.46
  errchk             3.96
  setup              0.31
  output             0.07


           total memory used        10263  kbytes
           total cpu time            9.15 seconds
           total elapsed time        9.32 seconds
           job started at     19:23:54 12/15/2007
           job ended   at     19:24:04 12/15/2007


  lic: Release hspice token(s) 
